<?xml version="1.0" encoding="UTF-8"?>

<!-- generated on 2025-04-01 12:26:29 by Eclipse SUMO netedit Version 1.22.0
<neteditConfiguration xmlns:xsi="http://www.w3.org/2001/XMLSchema-instance" xsi:noNamespaceSchemaLocation="http://sumo.dlr.de/xsd/neteditConfiguration.xsd">

    <input>
        <sumo-net-file value="/Users/ankhoa039/OneDrive - 長庚大學/Documents/Sem 3/AIOT/MiniProject/assignment/my_sumo_net.net.xml"/>
    </input>

    <output>
        <output-file value="/Users/ankhoa039/OneDrive - 長庚大學/Documents/Sem 3/AIOT/MiniProject/assignment/my_sumo_net.net.xml"/>
    </output>

    <processing>
        <geometry.min-radius.fix.railways value="false"/>
        <geometry.max-grade.fix value="false"/>
        <offset.disable-normalization value="true"/>
        <lefthand value="0"/>
    </processing>

    <junctions>
        <no-turnarounds value="true"/>
        <junctions.corner-detail value="5"/>
        <junctions.limit-turn-speed value="5.50"/>
        <rectangular-lane-cut value="0"/>
    </junctions>

    <pedestrian>
        <walkingareas value="0"/>
    </pedestrian>

</neteditConfiguration>
-->

<net version="1.20" junctionCornerDetail="5" limitTurnSpeed="5.50" xmlns:xsi="http://www.w3.org/2001/XMLSchema-instance" xsi:noNamespaceSchemaLocation="http://sumo.dlr.de/xsd/net_file.xsd">

    <location netOffset="-335477.45,-2768699.09" convBoundary="606.46,288.10,1954.20,1676.11" origBoundary="121.369420,25.024933,121.388731,25.040240" projParameter="+proj=utm +zone=51 +ellps=WGS84 +datum=WGS84 +units=m +no_defs"/>

    <type id="highway.footway" priority="1" numLanes="1" speed="2.78" allow="pedestrian" oneway="1" width="2.00"/>
    <type id="highway.path" priority="1" numLanes="1" speed="5.56" allow="pedestrian bicycle" oneway="0" width="2.00"/>
    <type id="highway.pedestrian" priority="1" numLanes="1" speed="2.78" allow="pedestrian" oneway="1" width="2.00"/>
    <type id="highway.residential" priority="3" numLanes="1" speed="13.89" disallow="tram rail_urban rail rail_electric rail_fast ship container cable_car subway aircraft wheelchair scooter drone" oneway="0"/>
    <type id="highway.service" priority="1" numLanes="1" speed="5.56" allow="pedestrian delivery bicycle" oneway="0"/>
    <type id="highway.steps" priority="1" numLanes="1" speed="1.39" allow="pedestrian" oneway="1" width="2.00"/>
    <type id="highway.tertiary" priority="10" numLanes="1" speed="22.22" disallow="tram rail_urban rail rail_electric rail_fast ship container cable_car subway aircraft wheelchair scooter drone" oneway="0"/>
    <type id="highway.tertiary_link" priority="5" numLanes="1" speed="22.22" disallow="tram rail_urban rail rail_electric rail_fast ship container cable_car subway aircraft wheelchair scooter drone" oneway="0"/>
    <type id="highway.unclassified" priority="4" numLanes="1" speed="13.89" disallow="tram rail_urban rail rail_electric rail_fast ship container cable_car subway aircraft wheelchair scooter drone" oneway="0"/>

    <edge id=":10957098342_0" function="internal">
        <lane id=":10957098342_0_0" index="0" allow="pedestrian delivery bicycle" speed="4.97" length="5.09" shape="1682.68,654.68 1683.61,655.75 1684.63,656.23 1685.76,656.14 1687.00,655.46"/>
    </edge>
    <edge id=":10957098342_1" function="internal">
        <lane id=":10957098342_1_0" index="0" allow="pedestrian delivery bicycle" speed="3.65" length="4.67" shape="1682.68,654.68 1682.66,656.13 1682.20,656.90 1681.32,656.99 1679.99,656.42"/>
    </edge>
    <edge id=":10957098342_2" function="internal">
        <lane id=":10957098342_2_0" index="0" allow="pedestrian delivery bicycle" speed="5.28" length="5.29" shape="1679.46,661.10 1680.39,660.14 1680.79,659.04 1680.66,657.79 1679.99,656.42"/>
    </edge>
    <edge id=":10957098342_3" function="internal">
        <lane id=":10957098342_3_0" index="0" disallow="tram rail_urban rail rail_electric rail_fast ship container cable_car subway aircraft wheelchair scooter drone" speed="22.22" length="9.42" shape="1679.46,661.10 1687.00,655.46"/>
    </edge>
    <edge id=":10957098343_0" function="internal">
        <lane id=":10957098343_0_0" index="0" allow="pedestrian delivery bicycle" speed="5.25" length="5.26" shape="1672.64,644.99 1671.67,643.84 1670.61,643.22 1669.44,643.14 1668.18,643.61"/>
    </edge>
    <edge id=":10957098343_1" function="internal">
        <lane id=":10957098343_1_0" index="0" allow="pedestrian delivery bicycle" speed="5.56" length="10.48" shape="1672.64,644.99 1671.44,642.36 1671.40,640.02 1672.54,637.97 1674.84,636.21"/>
    </edge>
    <edge id=":10957098343_2" function="internal">
        <lane id=":10957098343_2_0" index="0" allow="pedestrian delivery bicycle" speed="3.65" length="4.67" shape="1672.64,644.99 1672.67,643.55 1673.12,642.78 1674.01,642.69 1675.33,643.26"/>
    </edge>
    <edge id=":10957098343_3" function="internal">
        <lane id=":10957098343_3_0" index="0" allow="pedestrian delivery bicycle" speed="4.97" length="5.08" shape="1676.40,639.01 1675.28,639.86 1674.73,640.85 1674.75,641.99 1675.33,643.26"/>
    </edge>
    <edge id=":10957098343_4" function="internal">
        <lane id=":10957098343_4_0" index="0" allow="pedestrian delivery bicycle" speed="5.56" length="9.42" shape="1676.40,639.01 1668.18,643.61"/>
    </edge>
    <edge id=":10957098343_5" function="internal">
        <lane id=":10957098343_5_0" index="0" allow="pedestrian delivery bicycle" speed="3.65" length="4.67" shape="1676.40,639.01 1674.96,638.89 1674.22,638.39 1674.18,637.50 1674.84,636.21"/>
    </edge>
    <edge id=":10957098343_6" function="internal">
        <lane id=":10957098343_6_0" index="0" allow="pedestrian delivery bicycle" speed="5.56" length="9.43" shape="1666.61,640.82 1674.84,636.21"/>
    </edge>
    <edge id=":10957098343_7" function="internal">
        <lane id=":10957098343_7_0" index="0" allow="pedestrian delivery bicycle" speed="5.56" length="10.20" shape="1666.61,640.82 1669.12,639.86 1671.42,639.95 1673.49,641.09 1675.33,643.26"/>
    </edge>
    <edge id=":10957098343_8" function="internal">
        <lane id=":10957098343_8_0" index="0" allow="pedestrian delivery bicycle" speed="3.65" length="4.67" shape="1666.61,640.82 1668.05,640.93 1668.79,641.43 1668.83,642.32 1668.18,643.61"/>
    </edge>
    <edge id=":10957098344_0" function="internal">
        <lane id=":10957098344_0_0" index="0" allow="pedestrian delivery bicycle" speed="3.65" length="4.67" shape="1636.20,661.59 1634.77,661.49 1634.03,660.98 1633.98,660.09 1634.64,658.81"/>
    </edge>
    <edge id=":10957098345_0" function="internal">
        <lane id=":10957098345_0_0" index="0" allow="pedestrian delivery bicycle" speed="3.65" length="4.67" shape="1684.48,630.84 1685.92,630.96 1686.66,631.46 1686.70,632.35 1686.04,633.64"/>
    </edge>
    <edge id=":10957098346_0" function="internal">
        <lane id=":10957098346_0_0" index="0" allow="pedestrian delivery bicycle" speed="5.56" length="5.01" shape="1499.61,712.97 1497.27,708.54"/>
    </edge>
    <edge id=":10957098346_1" function="internal">
        <lane id=":10957098346_1_0" index="0" allow="pedestrian delivery bicycle" speed="3.65" length="4.67" shape="1499.61,712.97 1499.75,711.54 1500.28,710.81 1501.17,710.79 1502.44,711.48"/>
    </edge>
    <edge id=":10957098346_2" function="internal">
        <lane id=":10957098346_2_0" index="0" allow="pedestrian delivery bicycle" speed="5.56" length="5.01" shape="1500.10,707.05 1502.44,711.48"/>
    </edge>
    <edge id=":10957098346_3" function="internal">
        <lane id=":10957098346_3_0" index="0" allow="pedestrian delivery bicycle" speed="3.65" length="4.67" shape="1500.10,707.05 1499.95,708.48 1499.43,709.21 1498.54,709.23 1497.27,708.54"/>
    </edge>
    <edge id=":10957136514_0" function="internal">
        <lane id=":10957136514_0_0" index="0" disallow="tram rail_urban rail rail_electric rail_fast ship container cable_car subway aircraft wheelchair scooter drone" speed="22.22" length="5.00" shape="1521.19,729.91 1525.87,728.14"/>
    </edge>
    <edge id=":12181719804_0" function="internal">
        <lane id=":12181719804_0_0" index="0" disallow="tram rail_urban rail rail_electric rail_fast ship container cable_car subway aircraft wheelchair scooter drone" speed="13.89" length="4.25" shape="1791.80,920.77 1787.90,919.06"/>
    </edge>
    <edge id=":12181719805_0" function="internal">
        <lane id=":12181719805_0_0" index="0" disallow="tram rail_urban rail rail_electric rail_fast ship container cable_car subway aircraft wheelchair scooter drone" speed="22.22" length="1.03" shape="1601.77,1213.33 1600.82,1212.92"/>
        <lane id=":12181719805_0_1" index="1" disallow="tram rail_urban rail rail_electric rail_fast ship container cable_car subway aircraft wheelchair scooter drone" speed="22.22" length="1.03" shape="1603.02,1210.38 1602.07,1209.98"/>
        <lane id=":12181719805_0_2" index="2" disallow="tram rail_urban rail rail_electric rail_fast ship container cable_car subway aircraft wheelchair scooter drone" speed="22.22" length="1.03" shape="1604.27,1207.44 1603.32,1207.03"/>
    </edge>
    <edge id=":12181719806_0" function="internal">
        <lane id=":12181719806_0_0" index="0" allow="pedestrian delivery bicycle" speed="5.56" length="5.42" shape="1789.07,925.92 1784.09,923.79"/>
    </edge>
    <edge id=":12181719806_1" function="internal">
        <lane id=":12181719806_1_0" index="0" allow="pedestrian delivery bicycle" speed="3.65" length="1.44" shape="1789.07,925.92 1788.28,924.71"/>
    </edge>
    <edge id=":12181719806_4" function="internal">
        <lane id=":12181719806_4_0" index="0" allow="pedestrian delivery bicycle" speed="3.65" length="3.23" shape="1788.28,924.71 1788.23,923.82 1788.91,923.24 1790.33,922.98"/>
    </edge>
    <edge id=":12181719806_2" function="internal">
        <lane id=":12181719806_2_0" index="0" allow="pedestrian delivery bicycle" speed="5.56" length="5.42" shape="1785.35,920.85 1790.33,922.98"/>
    </edge>
    <edge id=":12181719806_3" function="internal">
        <lane id=":12181719806_3_0" index="0" allow="pedestrian delivery bicycle" speed="3.65" length="1.44" shape="1785.35,920.85 1786.14,922.05"/>
    </edge>
    <edge id=":12181719806_5" function="internal">
        <lane id=":12181719806_5_0" index="0" allow="pedestrian delivery bicycle" speed="3.65" length="3.23" shape="1786.14,922.05 1786.19,922.95 1785.51,923.52 1784.09,923.79"/>
    </edge>
    <edge id=":12181719807_0" function="internal">
        <lane id=":12181719807_0_0" index="0" disallow="tram rail_urban rail rail_electric rail_fast ship container cable_car subway aircraft wheelchair scooter drone" speed="13.89" length="3.54" shape="1792.52,913.58 1795.82,914.87"/>
    </edge>
    <edge id=":12509292177_0" function="internal">
        <lane id=":12509292177_0_0" index="0" disallow="tram rail_urban rail rail_electric rail_fast ship container cable_car subway aircraft wheelchair scooter drone" speed="22.22" length="0.27" shape="1613.72,1254.66 1613.72,1254.89"/>
        <lane id=":12509292177_0_1" index="1" disallow="tram rail_urban rail rail_electric rail_fast ship container cable_car subway aircraft wheelchair scooter drone" speed="22.22" length="0.27" shape="1610.52,1254.73 1610.53,1255.04"/>
    </edge>
    <edge id=":12509292183_0" function="internal">
        <lane id=":12509292183_0_0" index="0" disallow="tram rail_urban rail rail_electric rail_fast ship container cable_car subway aircraft wheelchair scooter drone" speed="22.22" length="0.30" shape="1613.64,1250.80 1613.64,1251.10"/>
        <lane id=":12509292183_0_1" index="1" disallow="tram rail_urban rail rail_electric rail_fast ship container cable_car subway aircraft wheelchair scooter drone" speed="22.22" length="0.30" shape="1610.44,1250.86 1610.44,1251.16"/>
    </edge>
    <edge id=":1815059321_0" function="internal">
        <lane id=":1815059321_0_0" index="0" disallow="tram rail_urban rail rail_electric rail_fast ship container cable_car subway aircraft wheelchair scooter drone" speed="3.65" length="4.67" shape="607.60,1278.61 606.19,1278.91 605.34,1278.63 605.05,1277.79 605.32,1276.37"/>
    </edge>
    <edge id=":2077750333_0" function="internal">
        <lane id=":2077750333_0_0" index="0" disallow="tram rail_urban rail rail_electric rail_fast ship container cable_car subway aircraft wheelchair scooter drone" speed="3.65" length="4.67" shape="1677.75,513.08 1677.67,511.64 1678.07,510.84 1678.95,510.68 1680.31,511.16"/>
    </edge>
    <edge id=":2077750465_0" function="internal">
        <lane id=":2077750465_0_0" index="0" disallow="tram rail_urban rail rail_electric rail_fast ship container cable_car subway aircraft wheelchair scooter drone" speed="3.65" length="4.67" shape="1511.56,601.82 1512.99,601.65 1513.82,602.00 1514.03,602.87 1513.64,604.26"/>
    </edge>
    <edge id=":2077750502_0" function="internal">
        <lane id=":2077750502_0_0" index="0" disallow="tram rail_urban rail rail_electric rail_fast ship container cable_car subway aircraft wheelchair scooter drone" speed="13.89" length="9.04" shape="1743.88,617.38 1739.18,609.65"/>
    </edge>
    <edge id=":2077750502_1" function="internal">
        <lane id=":2077750502_1_0" index="0" disallow="tram rail_urban rail rail_electric rail_fast ship container cable_car subway aircraft wheelchair scooter drone" speed="7.03" length="10.33" shape="1743.88,617.38 1743.60,615.81 1744.46,614.00 1746.46,611.96 1749.60,609.68"/>
    </edge>
    <edge id=":2077750502_2" function="internal">
        <lane id=":2077750502_2_0" index="0" disallow="tram rail_urban rail rail_electric rail_fast ship container cable_car subway aircraft wheelchair scooter drone" speed="3.65" length="4.67" shape="1743.88,617.38 1743.96,615.94 1744.45,615.19 1745.34,615.13 1746.64,615.76"/>
    </edge>
    <edge id=":2077750502_3" function="internal">
        <lane id=":2077750502_3_0" index="0" disallow="tram rail_urban rail rail_electric rail_fast ship container cable_car subway aircraft wheelchair scooter drone" speed="6.47" length="9.03" shape="1741.90,607.96 1743.49,609.86 1745.31,610.78 1747.34,610.72 1749.60,609.68"/>
    </edge>
    <edge id=":2077750502_4" function="internal">
        <lane id=":2077750502_4_0" index="0" disallow="tram rail_urban rail rail_electric rail_fast ship container cable_car subway aircraft wheelchair scooter drone" speed="13.89" length="9.13" shape="1741.90,607.96 1746.64,615.76"/>
    </edge>
    <edge id=":2077750502_5" function="internal">
        <lane id=":2077750502_5_0" index="0" disallow="tram rail_urban rail rail_electric rail_fast ship container cable_car subway aircraft wheelchair scooter drone" speed="3.65" length="4.67" shape="1741.90,607.96 1741.85,609.40 1741.39,610.17 1740.49,610.25 1739.18,609.65"/>
    </edge>
    <edge id=":2077750502_6" function="internal">
        <lane id=":2077750502_6_0" index="0" disallow="tram rail_urban rail rail_electric rail_fast ship container cable_car subway aircraft wheelchair scooter drone" speed="6.71" length="9.34" shape="1737.49,617.75 1739.36,616.03 1740.27,614.11 1740.21,611.98 1739.18,609.65"/>
    </edge>
    <edge id=":2077750502_7" function="internal">
        <lane id=":2077750502_7_0" index="0" disallow="tram rail_urban rail rail_electric rail_fast ship container cable_car subway aircraft wheelchair scooter drone" speed="22.22" length="14.55" shape="1737.49,617.75 1749.60,609.68"/>
    </edge>
    <edge id=":2077750502_8" function="internal">
        <lane id=":2077750502_8_0" index="0" disallow="tram rail_urban rail rail_electric rail_fast ship container cable_car subway aircraft wheelchair scooter drone" speed="6.73" length="10.27" shape="1737.49,617.75 1740.82,615.73 1743.46,614.73 1745.40,614.74 1746.64,615.76"/>
    </edge>
    <edge id=":2077750606_0" function="internal">
        <lane id=":2077750606_0_0" index="0" disallow="tram rail_urban rail rail_electric rail_fast ship container cable_car subway aircraft wheelchair scooter drone" speed="22.22" length="6.03" shape="1898.41,770.66 1894.60,775.28"/>
        <lane id=":2077750606_0_1" index="1" disallow="tram rail_urban rail rail_electric rail_fast ship container cable_car subway aircraft wheelchair scooter drone" speed="22.22" length="6.03" shape="1895.96,768.61 1892.09,773.29"/>
    </edge>
    <edge id=":2077750606_2" function="internal">
        <lane id=":2077750606_2_0" index="0" disallow="tram rail_urban rail rail_electric rail_fast ship container cable_car subway aircraft wheelchair scooter drone" speed="5.70" length="6.52" shape="1895.96,768.61 1894.15,770.67 1892.76,772.05 1891.76,772.76 1891.16,772.79"/>
    </edge>
    <edge id=":2077750606_3" function="internal">
        <lane id=":2077750606_3_0" index="0" disallow="tram rail_urban rail rail_electric rail_fast ship container cable_car subway aircraft wheelchair scooter drone" speed="4.33" length="3.45" shape="1893.13,770.26 1893.38,770.70 1893.29,771.35 1892.86,772.21 1892.09,773.29"/>
    </edge>
    <edge id=":2077750606_4" function="internal">
        <lane id=":2077750606_4_0" index="0" disallow="tram rail_urban rail rail_electric rail_fast ship container cable_car subway aircraft wheelchair scooter drone" speed="3.65" length="4.67" shape="1893.13,770.26 1893.58,771.63 1893.41,772.51 1892.60,772.90 1891.16,772.79"/>
    </edge>
    <edge id=":2077750641_0" function="internal">
        <lane id=":2077750641_0_0" index="0" disallow="tram rail_urban rail rail_electric rail_fast ship container cable_car subway aircraft wheelchair scooter drone" speed="5.89" length="7.87" shape="1009.48,861.81 1007.78,859.54 1006.95,857.65 1007.01,856.14 1007.95,855.02"/>
    </edge>
    <edge id=":2077750641_1" function="internal">
        <lane id=":2077750641_1_0" index="0" disallow="tram rail_urban rail rail_electric rail_fast ship container cable_car subway aircraft wheelchair scooter drone" speed="3.65" length="4.67" shape="1009.74,857.66 1008.30,857.68 1007.52,857.24 1007.40,856.35 1007.95,855.02"/>
    </edge>
    <edge id=":2077750697_0" function="internal">
        <lane id=":2077750697_0_0" index="0" allow="pedestrian delivery bicycle" speed="5.56" length="9.35" shape="1405.52,932.51 1396.59,935.28"/>
    </edge>
    <edge id=":2077750697_1" function="internal">
        <lane id=":2077750697_1_0" index="0" allow="pedestrian delivery bicycle" speed="5.56" length="11.49" shape="1405.52,932.51 1402.27,932.95 1399.93,932.16 1398.48,930.16 1397.93,926.93"/>
    </edge>
    <edge id=":2077750697_2" function="internal">
        <lane id=":2077750697_2_0" index="0" allow="pedestrian delivery bicycle" speed="3.65" length="4.67" shape="1405.52,932.51 1404.14,932.07 1403.54,931.41 1403.71,930.53 1404.64,929.43"/>
    </edge>
    <edge id=":2077750697_3" function="internal">
        <lane id=":2077750697_3_0" index="0" allow="pedestrian delivery bicycle" speed="4.82" length="5.33" shape="1401.12,926.85 1401.38,928.34 1402.05,929.27 1403.14,929.63 1404.64,929.43"/>
    </edge>
    <edge id=":2077750697_4" function="internal">
        <lane id=":2077750697_4_0" index="0" allow="pedestrian delivery bicycle" speed="5.56" length="10.29" shape="1401.12,926.85 1400.91,929.91 1400.08,932.34 1398.64,934.13 1396.59,935.28"/>
    </edge>
    <edge id=":2077750697_5" function="internal">
        <lane id=":2077750697_5_0" index="0" allow="pedestrian delivery bicycle" speed="3.65" length="4.67" shape="1401.12,926.85 1400.36,928.07 1399.57,928.49 1398.76,928.11 1397.93,926.93"/>
    </edge>
    <edge id=":2077750697_6" function="internal">
        <lane id=":2077750697_6_0" index="0" allow="pedestrian delivery bicycle" speed="5.56" length="6.24" shape="1395.53,932.26 1396.62,931.60 1397.39,930.49 1397.82,928.93 1397.93,926.93"/>
    </edge>
    <edge id=":2077750697_7" function="internal">
        <lane id=":2077750697_7_0" index="0" allow="pedestrian delivery bicycle" speed="5.56" length="9.54" shape="1395.53,932.26 1404.64,929.43"/>
    </edge>
    <edge id=":2077750697_8" function="internal">
        <lane id=":2077750697_8_0" index="0" allow="pedestrian delivery bicycle" speed="3.65" length="4.67" shape="1395.53,932.26 1396.93,932.62 1397.57,933.24 1397.46,934.13 1396.59,935.28"/>
    </edge>
    <edge id=":2077750721_0" function="internal">
        <lane id=":2077750721_0_0" index="0" allow="pedestrian delivery bicycle" speed="5.56" length="5.15" shape="1429.58,966.55 1424.45,967.02"/>
    </edge>
    <edge id=":2077750721_1" function="internal">
        <lane id=":2077750721_1_0" index="0" allow="pedestrian delivery bicycle" speed="3.65" length="1.44" shape="1429.58,966.55 1428.30,965.88"/>
    </edge>
    <edge id=":2077750721_4" function="internal">
        <lane id=":2077750721_4_0" index="0" allow="pedestrian delivery bicycle" speed="3.65" length="3.23" shape="1428.30,965.88 1427.81,965.13 1428.12,964.29 1429.23,963.37"/>
    </edge>
    <edge id=":2077750721_2" function="internal">
        <lane id=":2077750721_2_0" index="0" allow="pedestrian delivery bicycle" speed="5.56" length="5.05" shape="1424.20,963.83 1429.23,963.37"/>
    </edge>
    <edge id=":2077750721_3" function="internal">
        <lane id=":2077750721_3_0" index="0" allow="pedestrian delivery bicycle" speed="3.65" length="1.44" shape="1424.20,963.83 1425.46,964.53"/>
    </edge>
    <edge id=":2077750721_5" function="internal">
        <lane id=":2077750721_5_0" index="0" allow="pedestrian delivery bicycle" speed="3.65" length="3.23" shape="1425.46,964.53 1425.92,965.30 1425.58,966.13 1424.45,967.02"/>
    </edge>
    <edge id=":2077750739_0" function="internal">
        <lane id=":2077750739_0_0" index="0" allow="pedestrian delivery bicycle" speed="5.56" length="12.08" shape="1507.88,974.99 1510.18,972.62 1512.13,970.67 1513.95,968.63 1515.87,965.96"/>
    </edge>
    <edge id=":2077750739_1" function="internal">
        <lane id=":2077750739_1_0" index="0" allow="pedestrian delivery bicycle" speed="5.56" length="6.43" shape="1507.88,974.99 1509.01,974.79 1510.92,975.08 1512.87,975.53 1514.18,975.84"/>
    </edge>
    <edge id=":2077750739_2" function="internal">
        <lane id=":2077750739_2_0" index="0" allow="pedestrian delivery bicycle" speed="3.65" length="4.67" shape="1507.88,974.99 1509.28,974.65 1510.14,974.90 1510.46,975.74 1510.23,977.17"/>
    </edge>
    <edge id=":2077750762_0" function="internal">
        <lane id=":2077750762_0_0" index="0" allow="pedestrian delivery bicycle" speed="4.92" length="5.15" shape="1507.20,985.48 1506.06,984.61 1504.95,984.36 1503.87,984.72 1502.82,985.71"/>
    </edge>
    <edge id=":2077750762_1" function="internal">
        <lane id=":2077750762_1_0" index="0" allow="pedestrian delivery bicycle" speed="5.56" length="10.39" shape="1507.20,985.48 1505.42,983.13 1504.74,980.81 1505.16,978.53 1506.68,976.28"/>
    </edge>
    <edge id=":2077750762_2" function="internal">
        <lane id=":2077750762_2_0" index="0" allow="pedestrian delivery bicycle" speed="3.65" length="4.67" shape="1507.20,985.48 1506.93,984.07 1507.22,983.22 1508.07,982.95 1509.48,983.24"/>
    </edge>
    <edge id=":2077750762_3" function="internal">
        <lane id=":2077750762_3_0" index="0" allow="pedestrian delivery bicycle" speed="5.29" length="5.41" shape="1509.03,978.46 1508.28,979.59 1508.11,980.76 1508.51,981.98 1509.48,983.24"/>
    </edge>
    <edge id=":2077750762_4" function="internal">
        <lane id=":2077750762_4_0" index="0" allow="pedestrian delivery bicycle" speed="5.56" length="9.54" shape="1509.03,978.46 1502.82,985.71"/>
    </edge>
    <edge id=":2077750762_5" function="internal">
        <lane id=":2077750762_5_0" index="0" allow="pedestrian delivery bicycle" speed="3.65" length="4.67" shape="1509.03,978.46 1507.63,978.80 1506.77,978.55 1506.45,977.71 1506.68,976.28"/>
    </edge>
    <edge id=":2077750762_6" function="internal">
        <lane id=":2077750762_6_0" index="0" allow="pedestrian delivery bicycle" speed="5.56" length="9.78" shape="1500.32,983.71 1506.68,976.28"/>
    </edge>
    <edge id=":2077750762_7" function="internal">
        <lane id=":2077750762_7_0" index="0" allow="pedestrian delivery bicycle" speed="5.56" length="10.78" shape="1500.32,983.71 1502.51,981.65 1504.77,980.89 1507.09,981.42 1509.48,983.24"/>
    </edge>
    <edge id=":2077750762_8" function="internal">
        <lane id=":2077750762_8_0" index="0" allow="pedestrian delivery bicycle" speed="3.65" length="4.67" shape="1500.32,983.71 1501.69,983.27 1502.57,983.46 1502.94,984.27 1502.82,985.71"/>
    </edge>
    <edge id=":2077750766_0" function="internal">
        <lane id=":2077750766_0_0" index="0" allow="pedestrian delivery bicycle" speed="5.56" length="12.26" shape="1565.78,977.56 1577.06,982.37"/>
    </edge>
    <edge id=":2077750766_1" function="internal">
        <lane id=":2077750766_1_0" index="0" allow="pedestrian delivery bicycle" speed="5.56" length="12.27" shape="1564.93,981.13 1568.27,981.20 1571.11,981.19 1573.90,981.47 1577.06,982.37"/>
    </edge>
    <edge id=":2077750769_0" function="internal">
        <lane id=":2077750769_0_0" index="0" allow="pedestrian delivery bicycle" speed="5.56" length="3.36" shape="1491.89,988.44 1491.23,987.70 1490.73,987.24 1490.18,986.83 1489.37,986.24"/>
    </edge>
    <edge id=":2077750769_1" function="internal">
        <lane id=":2077750769_1_0" index="0" allow="pedestrian delivery bicycle" speed="3.65" length="1.44" shape="1491.89,988.44 1491.73,987.01"/>
    </edge>
    <edge id=":2077750769_4" function="internal">
        <lane id=":2077750769_4_0" index="0" allow="pedestrian delivery bicycle" speed="3.65" length="3.23" shape="1491.73,987.01 1492.08,986.19 1492.95,985.97 1494.34,986.37"/>
    </edge>
    <edge id=":2077750769_2" function="internal">
        <lane id=":2077750769_2_0" index="0" allow="pedestrian delivery bicycle" speed="5.56" length="4.09" shape="1491.28,983.68 1492.26,984.39 1492.93,984.90 1493.53,985.47 1494.34,986.37"/>
    </edge>
    <edge id=":2077750769_3" function="internal">
        <lane id=":2077750769_3_0" index="0" allow="pedestrian delivery bicycle" speed="3.65" length="1.44" shape="1491.28,983.68 1491.77,985.04"/>
    </edge>
    <edge id=":2077750769_5" function="internal">
        <lane id=":2077750769_5_0" index="0" allow="pedestrian delivery bicycle" speed="3.65" length="3.23" shape="1491.77,985.04 1491.61,985.92 1490.81,986.32 1489.37,986.24"/>
    </edge>
    <edge id=":2077750777_0" function="internal">
        <lane id=":2077750777_0_0" index="0" allow="pedestrian delivery bicycle" speed="5.56" length="8.84" shape="1497.66,995.41 1492.02,988.59"/>
    </edge>
    <edge id=":2077750777_1" function="internal">
        <lane id=":2077750777_1_0" index="0" allow="pedestrian delivery bicycle" speed="5.56" length="10.27" shape="1497.66,995.41 1496.45,993.26 1496.19,990.98 1496.86,988.57 1498.47,986.03"/>
    </edge>
    <edge id=":2077750777_2" function="internal">
        <lane id=":2077750777_2_0" index="0" allow="pedestrian delivery bicycle" speed="3.65" length="4.67" shape="1497.66,995.41 1497.53,993.97 1497.90,993.16 1498.78,992.97 1500.15,993.40"/>
    </edge>
    <edge id=":2077750777_3" function="internal">
        <lane id=":2077750777_3_0" index="0" allow="pedestrian delivery bicycle" speed="5.56" length="5.91" shape="1500.97,988.02 1499.96,989.56 1499.49,990.97 1499.55,992.25 1500.15,993.40"/>
    </edge>
    <edge id=":2077750777_4" function="internal">
        <lane id=":2077750777_4_0" index="0" allow="pedestrian delivery bicycle" speed="5.56" length="10.75" shape="1500.97,988.02 1498.70,990.21 1496.45,991.03 1494.22,990.49 1492.02,988.59"/>
    </edge>
    <edge id=":2077750777_5" function="internal">
        <lane id=":2077750777_5_0" index="0" allow="pedestrian delivery bicycle" speed="3.65" length="4.67" shape="1500.97,988.02 1499.60,988.46 1498.73,988.27 1498.35,987.46 1498.47,986.03"/>
    </edge>
    <edge id=":2077750777_6" function="internal">
        <lane id=":2077750777_6_0" index="0" allow="pedestrian delivery bicycle" speed="4.70" length="4.83" shape="1494.47,986.53 1495.41,987.32 1496.40,987.50 1497.42,987.07 1498.47,986.03"/>
    </edge>
    <edge id=":2077750777_7" function="internal">
        <lane id=":2077750777_7_0" index="0" allow="pedestrian delivery bicycle" speed="5.56" length="8.93" shape="1494.47,986.53 1500.15,993.40"/>
    </edge>
    <edge id=":2077750777_8" function="internal">
        <lane id=":2077750777_8_0" index="0" allow="pedestrian delivery bicycle" speed="3.65" length="4.67" shape="1494.47,986.53 1494.63,987.96 1494.28,988.78 1493.41,988.99 1492.02,988.59"/>
    </edge>
    <edge id=":2077750786_0" function="internal">
        <lane id=":2077750786_0_0" index="0" allow="pedestrian delivery bicycle" speed="5.56" length="4.87" shape="1520.85,1002.05 1520.40,1000.67 1520.24,999.65 1519.93,998.71 1519.09,997.60"/>
    </edge>
    <edge id=":2077750786_1" function="internal">
        <lane id=":2077750786_1_0" index="0" allow="pedestrian delivery bicycle" speed="3.65" length="4.67" shape="1520.85,1002.05 1521.10,1000.63 1521.67,999.94 1522.56,999.99 1523.78,1000.76"/>
    </edge>
    <edge id=":2077750786_2" function="internal">
        <lane id=":2077750786_2_0" index="0" allow="pedestrian delivery bicycle" speed="4.66" length="5.98" shape="1526.39,997.43 1524.57,997.35 1523.53,997.88 1523.27,999.02 1523.78,1000.76"/>
    </edge>
    <edge id=":2077750786_3" function="internal">
        <lane id=":2077750786_3_0" index="0" allow="pedestrian delivery bicycle" speed="5.56" length="7.31" shape="1526.39,997.43 1519.09,997.60"/>
    </edge>
    <edge id=":2077750786_4" function="internal">
        <lane id=":2077750786_4_0" index="0" allow="pedestrian delivery bicycle" speed="5.56" length="6.00" shape="1521.37,995.36 1522.45,996.72 1522.91,997.84 1523.19,999.08 1523.78,1000.76"/>
    </edge>
    <edge id=":2077750786_5" function="internal">