<?xml version="1.0" encoding="UTF-8"?>

<!-- generated on 2025-04-01 12:27:41 by Eclipse SUMO netconvert Version 1.22.0
<netconvertConfiguration xmlns:xsi="http://www.w3.org/2001/XMLSchema-instance" xsi:noNamespaceSchemaLocation="http://sumo.dlr.de/xsd/netconvertConfiguration.xsd">

    <input>
        <sumo-net-file value="my_sumo_net.net.xml"/>
    </input>

    <output>
        <plain-output-prefix value="extracted/"/>
    </output>

    <processing>
        <geometry.min-radius.fix.railways value="false"/>
        <geometry.max-grade.fix value="false"/>
        <offset.disable-normalization value="true"/>
        <lefthand value="0"/>
    </processing>

    <junctions>
        <no-turnarounds value="true"/>
        <junctions.corner-detail value="5"/>
        <junctions.limit-turn-speed value="5.50"/>
        <rectangular-lane-cut value="0"/>
    </junctions>

    <pedestrian>
        <walkingareas value="0"/>
    </pedestrian>

</netconvertConfiguration>
-->

<edges version="1.20" xmlns:xsi="http://www.w3.org/2001/XMLSchema-instance" xsi:noNamespaceSchemaLocation="http://sumo.dlr.de/xsd/edges_file.xsd">
    <location netOffset="-335477.45,-2768699.09" convBoundary="606.46,288.10,1954.20,1676.11" origBoundary="121.369420,25.024933,121.388731,25.040240" projParameter="+proj=utm +zone=51 +ellps=WGS84 +datum=WGS84 +units=m +no_defs"/>

    <edge id="-1179712572#0" from="10957098343" to="10957098342" priority="1" type="highway.service" numLanes="1" speed="5.56" allow="pedestrian delivery bicycle"/>
    <edge id="-1179712572#1" from="10957098344" to="10957098343" priority="1" type="highway.service" numLanes="1" speed="5.56" allow="pedestrian delivery bicycle"/>
    <edge id="-1179712573" from="10957098345" to="10957098343" priority="1" type="highway.service" numLanes="1" speed="5.56" allow="pedestrian delivery bicycle"/>
    <edge id="-170356124" from="603804636" to="1815059321" priority="4" type="highway.unclassified" numLanes="1" speed="13.89" shape="1071.81,975.58 960.91,954.73 954.59,953.62 942.47,951.51 932.02,951.31 715.51,1166.28 635.61,1247.76 611.91,1271.93 606.46,1277.49" disallow="tram rail_urban rail rail_electric rail_fast ship container cable_car subway aircraft wheelchair scooter drone"/>
    <edge id="-197551632#0" from="4166838521" to="4166640290" priority="3" type="highway.residential" numLanes="1" speed="13.89" shape="1747.12,619.76 1767.76,649.87 1783.59,675.45 1798.20,693.97 1820.01,713.25 1825.82,718.27 1834.09,725.78" disallow="tram rail_urban rail rail_electric rail_fast ship container cable_car subway aircraft wheelchair scooter drone"/>
    <edge id="-197551632#1" from="2077750502" to="4166838521" priority="3" type="highway.residential" numLanes="1" speed="13.89" disallow="tram rail_urban rail rail_electric rail_fast ship container cable_car subway aircraft wheelchair scooter drone"/>
    <edge id="-197551632#2" from="2077750333" to="2077750502" priority="3" type="highway.residential" numLanes="1" speed="13.89" shape="1679.03,512.12 1686.73,522.42 1743.53,613.61" disallow="tram rail_urban rail rail_electric rail_fast ship container cable_car subway aircraft wheelchair scooter drone"/>
    <edge id="-197551633#0" from="2077750926" to="2077750954" priority="1" type="highway.service" numLanes="1" speed="5.56" allow="pedestrian delivery bicycle"/>
    <edge id="-197551633#1" from="2077750907" to="2077750926" priority="1" type="highway.service" numLanes="1" speed="5.56" shape="1536.56,1059.36 1535.64,1065.79 1532.09,1079.60" allow="pedestrian delivery bicycle"/>
    <edge id="-197551633#2" from="2077750871" to="2077750907" priority="1" type="highway.service" numLanes="1" speed="5.56" shape="1536.64,1039.10 1536.08,1050.15 1536.56,1059.36" allow="pedestrian delivery bicycle"/>
    <edge id="-197551633#3" from="2077750833" to="2077750871" priority="1" type="highway.service" numLanes="1" speed="5.56" shape="1529.32,1016.56 1532.44,1026.87 1536.64,1039.10" allow="pedestrian delivery bicycle"/>
    <edge id="-197551633#4" from="2077750786" to="2077750833" priority="1" type="highway.service" numLanes="1" speed="5.56" shape="1520.08,996.33 1526.71,1011.40 1529.32,1016.56" allow="pedestrian delivery bicycle"/>
    <edge id="-197551633#5" from="2077750762" to="2077750786" priority="1" type="highway.service" numLanes="1" speed="5.56" allow="pedestrian delivery bicycle"/>
    <edge id="-197551654#0" from="2077750762" to="2077750777" priority="1" type="highway.service" numLanes="1" speed="5.56" allow="pedestrian delivery bicycle"/>
    <edge id="-197551654#1" from="2077750739" to="2077750762" priority="1" type="highway.service" numLanes="1" speed="5.56" allow="pedestrian delivery bicycle"/>
    <edge id="-197551659" from="2077750992" to="2077751059" priority="1" type="highway.service" numLanes="1" speed="5.56" shape="1531.06,1116.55 1647.49,1137.55 1643.13,1153.19" allow="pedestrian delivery bicycle"/>
    <edge id="-197551662#0" from="2077750944" to="2077751013" priority="1" type="highway.service" numLanes="1" speed="5.56" shape="1510.04,1089.94 1502.47,1105.62 1494.36,1128.34" allow="pedestrian delivery bicycle"/>
    <edge id="-197551662#1" from="2077750777" to="2077750944" priority="1" type="highway.service" numLanes="1" speed="5.56" shape="1496.36,991.24 1500.79,996.75 1505.23,1003.55 1509.87,1011.82 1514.36,1022.77 1517.30,1031.47 1519.12,1041.63 1519.64,1053.05 1518.30,1068.23 1515.97,1078.65 1510.04,1089.94" allow="pedestrian delivery bicycle"/>
    <edge id="-197551662#2" from="2077750769" to="2077750777" priority="1" type="highway.service" numLanes="1" speed="5.56" allow="pedestrian delivery bicycle"/>
    <edge id="-197551662#3" from="2077750721" to="2077750769" priority="1" type="highway.service" numLanes="1" speed="5.56" shape="1427.16,965.20 1435.66,964.28 1447.78,964.97 1460.51,968.14 1472.49,973.61 1482.21,978.89 1492.28,986.42" allow="pedestrian delivery bicycle"/>
    <edge id="-197551662#4" from="2077750869" to="2077750721" priority="1" type="highway.service" numLanes="1" speed="5.56" shape="1347.17,1037.23 1349.31,1025.99 1353.36,1016.18 1357.42,1008.44 1362.44,1000.06 1369.35,991.88 1377.57,983.27 1386.22,978.17 1396.75,972.01 1406.36,968.37 1417.69,965.95 1427.16,965.20" allow="pedestrian delivery bicycle"/>
    <edge id="-197551667#0" from="2077751066" to="2077751081" priority="1" type="highway.service" numLanes="1" speed="5.56" allow="pedestrian delivery bicycle"/>
    <edge id="-197551667#1" from="2077751059" to="2077751066" priority="1" type="highway.service" numLanes="1" speed="5.56" allow="pedestrian delivery bicycle"/>
    <edge id="-197551667#2" from="2077751033" to="2077751059" priority="1" type="highway.service" numLanes="1" speed="5.56" allow="pedestrian delivery bicycle"/>
    <edge id="-197551668#0" from="2077751090" to="2077751071" priority="1" type="highway.service" numLanes="1" speed="5.56" shape="1425.46,1172.83 1441.55,1172.42 1457.61,1170.16 1474.71,1165.98" allow="pedestrian delivery bicycle"/>
    <edge id="-197551668#1" from="2077750994" to="2077751090" priority="1" type="highway.service" numLanes="1" speed="5.56" shape="1335.70,1122.78 1343.18,1131.84 1353.16,1142.31 1366.34,1152.34 1377.02,1158.65 1391.47,1164.71 1407.63,1169.71 1425.46,1172.83" allow="pedestrian delivery bicycle"/>
    <edge id="-197551668#2" from="2077750697" to="2077750994" priority="1" type="highway.service" numLanes="1" speed="5.56" shape="1399.68,932.50 1389.88,935.94 1377.82,940.87 1366.54,947.44 1357.92,954.61 1350.62,961.98 1341.13,975.38 1331.82,987.97 1325.31,998.43 1319.61,1012.43 1315.78,1024.31 1314.02,1036.18 1312.88,1051.16 1313.27,1067.77 1315.86,1078.96 1318.64,1089.53 1323.13,1101.11 1328.94,1111.85 1335.70,1122.78" allow="pedestrian delivery bicycle"/>
    <edge id="-197551668#3" from="3909421012" to="2077750697" priority="1" type="highway.service" numLanes="1" speed="5.56" shape="1393.22,819.33 1395.25,830.32 1397.04,838.61 1399.59,845.64 1404.26,856.19 1408.51,863.40 1413.72,870.83 1420.44,879.27 1425.83,886.89 1429.32,893.92 1431.88,901.99 1432.17,909.67 1430.55,916.76 1427.94,920.73 1422.69,924.54 1412.71,928.81 1399.68,932.50" allow="pedestrian delivery bicycle"/>
    <edge id="-197551668#4" from="4773373579" to="3909421012" priority="1" type="highway.service" numLanes="1" speed="5.56" shape="1406.50,806.91 1395.71,814.78 1393.22,819.33" allow="pedestrian delivery bicycle"/>
    <edge id="-197551673#0" from="2077750885" to="2077750843" priority="1" type="highway.service" numLanes="1" speed="5.56" allow="pedestrian delivery bicycle"/>
    <edge id="-197551673#1" from="2077750914" to="2077750885" priority="1" type="highway.service" numLanes="1" speed="5.56" allow="pedestrian delivery bicycle"/>
    <edge id="-197551673#2" from="2077750933" to="2077750914" priority="1" type="highway.service" numLanes="1" speed="5.56" allow="pedestrian delivery bicycle"/>
    <edge id="-197551673#3" from="2077750965" to="2077750933" priority="1" type="highway.service" numLanes="1" speed="5.56" allow="pedestrian delivery bicycle"/>
    <edge id="-197551673#4" from="2077751004" to="2077750965" priority="1" type="highway.service" numLanes="1" speed="5.56" allow="pedestrian delivery bicycle"/>
    <edge id="-197551679#0" from="2077751016" to="2077751040" priority="1" type="highway.service" numLanes="1" speed="5.56" allow="pedestrian delivery bicycle"/>
    <edge id="-197551679#1" from="2077751004" to="2077751016" priority="1" type="highway.service" numLanes="1" speed="5.56" allow="pedestrian delivery bicycle"/>
    <edge id="-197551679#2" from="2077750954" to="2077751004" priority="1" type="highway.service" numLanes="1" speed="5.56" shape="1525.94,1095.40 1532.28,1097.58 1614.28,1113.48 1661.57,1123.77" allow="pedestrian delivery bicycle"/>
    <edge id="-197551679#3" from="2077750944" to="2077750954" priority="1" type="highway.service" numLanes="1" speed="5.56" allow="pedestrian delivery bicycle"/>
    <edge id="-29182100#0" from="603804636" to="603804637" priority="10" type="highway.tertiary" numLanes="2" speed="22.22" disallow="tram rail_urban rail rail_electric rail_fast ship container cable_car subway aircraft wheelchair scooter drone">
        <param key="ref" value="桃7"/>
    </edge>
    <edge id="-29182100#1" from="2077751064" to="603804636" priority="10" type="highway.tertiary" numLanes="2" speed="22.22" shape="991.85,1167.45 994.75,1158.97 1002.66,1126.94 1005.97,1113.22 1011.67,1098.39 1025.03,1073.23 1046.56,1039.17 1057.69,1020.95 1063.67,1002.97 1068.62,986.05 1071.81,975.58" disallow="tram rail_urban rail rail_electric rail_fast ship container cable_car subway aircraft wheelchair scooter drone">
        <param key="ref" value="桃7"/>
    </edge>
    <edge id="-415670669#0" from="5228361750" to="4830907978" priority="4" type="highway.unclassified" numLanes="1" speed="13.89" disallow="tram rail_urban rail rail_electric rail_fast ship container cable_car subway aircraft wheelchair scooter drone"/>
    <edge id="-415670669#1" from="4902041820" to="5228361750" priority="4" type="highway.unclassified" numLanes="1" speed="13.89" disallow="tram rail_urban rail rail_electric rail_fast ship container cable_car subway aircraft wheelchair scooter drone"/>
    <edge id="-415670711" from="4166640723" to="2896653424" priority="3" type="highway.residential" numLanes="1" speed="13.89" disallow="tram rail_urban rail rail_electric rail_fast ship container cable_car subway aircraft wheelchair scooter drone"/>
    <edge id="-415697019#0" from="4166839080" to="603804680" priority="1" type="highway.service" numLanes="1" speed="5.56" allow="pedestrian delivery bicycle"/>
    <edge id="-415697019#1" from="4166839199" to="4166839080" priority="1" type="highway.service" numLanes="1" speed="5.56" shape="1766.11,958.23 1765.60,954.59 1762.94,950.82" allow="pedestrian delivery bicycle"/>
    <edge id="-415697019#2" from="4166839279" to="4166839199" priority="1" type="highway.service" numLanes="1" speed="5.56" shape="1739.85,1029.05 1734.71,1010.21 1736.19,981.80 1762.84,962.89 1766.11,958.23" allow="pedestrian delivery bicycle"/>
    <edge id="-415697064" from="2077750641" to="603804610" priority="5" type="highway.tertiary_link" numLanes="1" speed="22.22" disallow="tram rail_urban rail rail_electric rail_fast ship container cable_car subway aircraft wheelchair scooter drone"/>
    <edge id="-415697074#0" from="12181719806" to="4166839000" priority="1" type="highway.service" numLanes="1" speed="5.56" allow="pedestrian delivery bicycle"/>
    <edge id="-415697074#1" from="4166839198" to="12181719806" priority="1" type="highway.service" numLanes="1" speed="5.56" shape="1849.90,955.14 1834.98,943.78 1786.83,923.22" allow="pedestrian delivery bicycle"/>
    <edge id="-415697080" from="5227893018" to="4166839199" priority="1" type="highway.service" numLanes="1" speed="5.56" shape="1776.12,989.54 1775.23,977.11 1773.69,971.46 1766.11,958.23" allow="pedestrian delivery bicycle"/>
    <edge id="-491337034" from="4830907978" to="4166640290" priority="4" type="highway.unclassified" numLanes="1" speed="13.89" disallow="tram rail_urban rail rail_electric rail_fast ship container cable_car subway aircraft wheelchair scooter drone"/>
    <edge id="-491342453" from="603804726" to="4166640730" priority="4" type="highway.unclassified" numLanes="1" speed="13.89" disallow="tram rail_urban rail rail_electric rail_fast ship container cable_car subway aircraft wheelchair scooter drone"/>
    <edge id="-491342456" from="2896653422" to="4166640723" priority="3" type="highway.residential" numLanes="1" speed="13.89" disallow="tram rail_urban rail rail_electric rail_fast ship container cable_car subway aircraft wheelchair scooter drone"/>
    <edge id="-498859819" from="4166640730" to="4902041820" priority="4" type="highway.unclassified" numLanes="1" speed="13.89" disallow="tram rail_urban rail rail_electric rail_fast ship container cable_car subway aircraft wheelchair scooter drone"/>
    <edge id="-540379956#0" from="5227854240" to="603804582" priority="3" type="highway.residential" numLanes="1" speed="13.89" shape="1383.02,737.37 1390.72,753.33 1423.09,783.05" disallow="tram rail_urban rail rail_electric rail_fast ship container cable_car subway aircraft wheelchair scooter drone"/>
    <edge id="-540379956#1" from="2077750465" to="5227854240" priority="3" type="highway.residential" numLanes="1" speed="13.89" shape="1512.60,603.04 1398.01,700.74 1386.18,720.06 1383.02,737.37" disallow="tram rail_urban rail rail_electric rail_fast ship container cable_car subway aircraft wheelchair scooter drone"/>
    <edge id="-540379959#0" from="5227854264" to="5227854263" priority="1" type="highway.service" numLanes="1" speed="5.56" allow="pedestrian delivery bicycle"/>
    <edge id="-540379959#1" from="5227854266" to="5227854264" priority="1" type="highway.service" numLanes="1" speed="5.56" shape="1940.19,606.03 1937.42,636.28 1913.19,620.53" allow="pedestrian delivery bicycle"/>
    <edge id="-540383741#0" from="5227884657" to="5227884654" priority="1" type="highway.service" numLanes="1" speed="5.56" allow="pedestrian delivery bicycle"/>
    <edge id="-540383741#1" from="10957098346" to="5227884657" priority="1" type="highway.service" numLanes="1" speed="5.56" allow="pedestrian delivery bicycle"/>
    <edge id="-540383741#2" from="5227884656" to="10957098346" priority="1" type="highway.service" numLanes="1" speed="5.56" shape="1431.32,730.23 1493.45,697.86 1500.00,710.29" allow="pedestrian delivery bicycle"/>
    <edge id="-540383742" from="5227884658" to="5227884657" priority="1" type="highway.service" numLanes="1" speed="5.56" allow="pedestrian delivery bicycle"/>
    <edge id="-540383744#0" from="5227884667" to="2077750697" priority="1" type="highway.service" numLanes="1" speed="5.56" shape="1373.87,867.67 1409.58,909.32 1399.39,922.00 1399.68,932.50" allow="pedestrian delivery bicycle"/>
    <edge id="-540383744#1" from="5227884668" to="5227884667" priority="1" type="highway.service" numLanes="1" speed="5.56" allow="pedestrian delivery bicycle"/>
    <edge id="-540430733" from="5228361750" to="4830907978" priority="1" type="highway.service" numLanes="1" speed="5.56" shape="1875.28,697.02 1885.15,713.96 1882.34,721.68 1877.71,724.46 1869.17,723.92 1859.26,708.57" allow="pedestrian delivery bicycle"/>
    <edge id="-540430734#0" from="5228361751" to="2691345316" priority="1" type="highway.service" numLanes="1" speed="5.56" allow="pedestrian delivery bicycle"/>
    <edge id="-552581045" from="5334989328" to="5334900011" priority="1" type="highway.path" numLanes="1" speed="5.56" shape="1330.33,1200.13 1311.05,1189.00 1273.88,1161.06 1241.65,1131.53 1211.37,1105.14 1172.96,1072.67 1147.89,1049.95 1121.29,1026.41 1109.92,1016.52 1099.29,1006.12 1090.65,998.48 1081.92,992.85" width="2.00" allow="pedestrian bicycle"/>
    <edge id="-914376097" from="4166640290" to="4166640725" priority="3" type="highway.residential" numLanes="1" speed="13.89" shape="1834.09,725.78 1843.68,733.82 1879.08,761.36 1889.20,769.23" disallow="tram rail_urban rail rail_electric rail_fast ship container cable_car subway aircraft wheelchair scooter drone"/>
    <edge id="-914376098" from="4166640725" to="2077750606" priority="3" type="highway.residential" numLanes="1" speed="13.89" disallow="tram rail_urban rail rail_electric rail_fast ship container cable_car subway aircraft wheelchair scooter drone"/>
    <edge id="1136647933#0" from="603804636" to="2077750641" priority="10" type="highway.tertiary" numLanes="1" speed="22.22" shape="1071.81,975.58 1058.85,953.69 1032.81,903.43 1012.29,865.03 1006.25,858.10" spreadType="center" disallow="tram rail_urban rail rail_electric rail_fast ship container cable_car subway aircraft wheelchair scooter drone">
        <param key="ref" value="桃7"/>
    </edge>
    <edge id="1136647934" from="603804637" to="603804690" priority="10" type="highway.tertiary" numLanes="2" speed="22.22" shape="1076.89,966.41 1100.86,989.27 1136.60,1022.31 1292.34,1157.04 1318.36,1177.11 1345.08,1192.82 1363.51,1198.66 1388.45,1206.54 1484.81,1219.49" spreadType="center" disallow="tram rail_urban rail rail_electric rail_fast ship container cable_car subway aircraft wheelchair scooter drone"/>
    <edge id="1136647935#0" from="603804690" to="4165418145" priority="10" type="highway.tertiary" numLanes="3" speed="22.22" spreadType="center" disallow="tram rail_urban rail rail_electric rail_fast ship container cable_car subway aircraft wheelchair scooter drone"/>
    <edge id="1136647935#1" from="4165418145" to="302985603" priority="10" type="highway.tertiary" numLanes="3" speed="22.22" spreadType="center" disallow="tram rail_urban rail rail_electric rail_fast ship container cable_car subway aircraft wheelchair scooter drone"/>
    <edge id="1136647935#2" from="302985603" to="302985604" priority="10" type="highway.tertiary" numLanes="3" speed="22.22" spreadType="center" disallow="tram rail_urban rail rail_electric rail_fast ship container cable_car subway aircraft wheelchair scooter drone"/>
    <edge id="1179712572#0" from="10957098342" to="10957098343" priority="1" type="highway.service" numLanes="1" speed="5.56" allow="pedestrian delivery bicycle"/>
    <edge id="1179712572#1" from="10957098343" to="10957098344" priority="1" type="highway.service" numLanes="1" speed="5.56" allow="pedestrian delivery bicycle"/>
    <edge id="1179712573" from="10957098343" to="10957098345" priority="1" type="highway.service" numLanes="1" speed="5.56" allow="pedestrian delivery bicycle"/>
    <edge id="1179712574#0" from="10957098346" to="10957098350" priority="1" type="highway.footway" numLanes="1" speed="2.78" shape="1500.00,710.29 1503.72,707.83 1509.08,705.93 1513.43,703.91 1521.44,700.73" spreadType="center" width="2.00" allow="pedestrian"/>
    <edge id="1179712574#1" from="10957098350" to="10957098393" priority="1" type="highway.footway" numLanes="1" speed="2.78" shape="1521.44,700.73 1526.21,698.00 1529.30,695.15 1532.91,689.62 1535.24,684.11 1539.13,678.44 1543.72,672.35 1551.27,665.93 1557.48,664.03 1565.96,664.20 1573.32,665.10 1581.10,665.85 1589.87,665.75 1597.49,664.96 1604.96,663.88 1618.47,658.10 1624.92,654.36 1633.35,650.19 1643.31,643.89 1653.85,638.57 1665.51,632.52 1674.35,627.77 1682.50,623.32 1684.74,621.26 1685.76,620.17" spreadType="center" width="2.00" allow="pedestrian"/>
    <edge id="1179712574#2" from="10957098393" to="10957098377" priority="1" type="highway.footway" numLanes="1" speed="2.78" shape="1685.76,620.17 1686.69,619.20 1690.15,612.69 1691.18,604.52 1688.82,596.40 1686.48,589.81" spreadType="center" width="2.00" allow="pedestrian"/>
    <edge id="1179712574#3" from="10957098377" to="10957098391" priority="1" type="highway.footway" numLanes="1" speed="2.78" shape="1686.48,589.81 1680.93,586.37 1673.81,582.52 1667.26,578.23 1663.81,573.08 1661.50,568.89 1659.19,565.13 1656.47,562.20 1653.62,559.99 1647.52,558.23 1642.27,556.75 1631.09,555.34 1620.36,556.31 1613.04,559.48 1605.33,564.22" spreadType="center" width="2.00" allow="pedestrian"/>
    <edge id="1179712575" from="10957098393" to="10957098377" priority="1" type="highway.footway" numLanes="1" speed="2.78" shape="1685.76,620.17 1688.52,621.47 1691.65,623.33 1694.43,626.04 1698.16,630.42 1703.20,626.42 1703.65,622.76 1703.47,619.61 1703.33,613.56 1702.20,608.09 1699.45,601.94 1695.28,596.51 1691.71,593.11 1689.36,591.16 1686.48,589.81" spreadType="center" width="2.00" allow="pedestrian"/>
    <edge id="1179712576" from="10957098350" to="10957136514" priority="1" type="highway.footway" numLanes="1" speed="2.78" shape="1521.44,700.73 1522.58,702.50 1523.17,705.89 1523.22,710.36 1522.40,713.58 1520.32,719.46 1520.57,721.16 1523.53,729.03" spreadType="center" width="2.00" allow="pedestrian"/>
    <edge id="170356124" from="1815059321" to="603804636" priority="4" type="highway.unclassified" numLanes="1" speed="13.89" shape="606.46,1277.49 611.91,1271.93 635.61,1247.76 715.51,1166.28 932.02,951.31 942.47,951.51 954.59,953.62 960.91,954.73 1071.81,975.58" disallow="tram rail_urban rail rail_electric rail_fast ship container cable_car subway aircraft wheelchair scooter drone"/>
    <edge id="197551632#0" from="4166640290" to="4166838521" priority="3" type="highway.residential" numLanes="1" speed="13.89" shape="1834.09,725.78 1825.82,718.27 1820.01,713.25 1798.20,693.97 1783.59,675.45 1767.76,649.87 1747.12,619.76" disallow="tram rail_urban rail rail_electric rail_fast ship container cable_car subway aircraft wheelchair scooter drone"/>
    <edge id="197551632#1" from="4166838521" to="2077750502" priority="3" type="highway.residential" numLanes="1" speed="13.89" disallow="tram rail_urban rail rail_electric rail_fast ship container cable_car subway aircraft wheelchair scooter drone"/>
    <edge id="197551632#2" from="2077750502" to="2077750333" priority="3" type="highway.residential" numLanes="1" speed="13.89" shape="1743.53,613.61 1686.73,522.42 1679.03,512.12" disallow="tram rail_urban rail rail_electric rail_fast ship container cable_car subway aircraft wheelchair scooter drone"/>
    <edge id="197551633#0" from="2077750954" to="2077750926" priority="1" type="highway.service" numLanes="1" speed="5.56" allow="pedestrian delivery bicycle"/>
    <edge id="197551633#1" from="2077750926" to="2077750907" priority="1" type="highway.service" numLanes="1" speed="5.56" shape="1532.09,1079.60 1535.64,1065.79 1536.56,1059.36" allow="pedestrian delivery bicycle"/>
    <edge id="197551633#2" from="2077750907" to="2077750871" priority="1" type="highway.service" numLanes="1" speed="5.56" shape="1536.56,1059.36 1536.08,1050.15 1536.64,1039.10" allow="pedestrian delivery bicycle"/>
    <edge id="197551633#3" from="2077750871" to="2077750833" priority="1" type="highway.service" numLanes="1" speed="5.56" shape="1536.64,1039.10 1532.44,1026.87 1529.32,1016.56" allow="pedestrian delivery bicycle"/>
    <edge id="197551633#4" from="2077750833" to="2077750786" priority="1" type="highway.service" numLanes="1" speed="5.56" shape="1529.32,1016.56 1526.71,1011.40 1520.08,996.33" allow="pedestrian delivery bicycle"/>
    <edge id="197551633#5" from="2077750786" to="2077750762" priority="1" type="highway.service" numLanes="1" speed="5.56" allow="pedestrian delivery bicycle"/>
    <edge id="197551635" from="2077751090" to="2077750994" priority="1" type="highway.service" numLanes="1" speed="5.56" shape="1425.46,1172.83 1425.79,1184.04 1424.37,1192.58 1418.53,1194.94 1401.64,1191.61 1381.69,1185.40 1364.57,1178.75 1347.97,1167.72 1333.25,1156.27 1322.53,1145.80 1318.26,1137.33 1335.70,1122.78" spreadType="center" allow="pedestrian delivery bicycle"/>
    <edge id="197551640#0" from="2077751105" to="2077751071" priority="10" type="highway.tertiary" numLanes="3" speed="22.22" shape="1507.59,1176.63 1500.31,1178.72 1492.74,1178.60 1485.54,1176.26 1479.35,1171.93 1474.71,1165.98" spreadType="center" disallow="tram rail_urban rail rail_electric rail_fast ship container cable_car subway aircraft wheelchair scooter drone"/>
    <edge id="197551640#1" from="2077751071" to="2077751013" priority="10" type="highway.tertiary" numLanes="3" speed="22.22" shape="1474.71,1165.98 1471.86,1158.15 1471.73,1149.81 1474.32,1141.89 1479.35,1135.23 1486.27,1130.54 1494.36,1128.34" spreadType="center" disallow="tram rail_urban rail rail_electric rail_fast ship container cable_car subway aircraft wheelchair scooter drone"/>
    <edge id="197551640#2" from="2077751013" to="2077751060" priority="10" type="highway.tertiary" numLanes="3" speed="22.22" shape="1494.36,1128.34 1503.14,1128.96 1511.19,1132.52 1517.54,1138.58 1521.43,1146.42 1522.42,1155.13" spreadType="center" disallow="tram rail_urban rail rail_electric rail_fast ship container cable_car subway aircraft wheelchair scooter drone"/>
    <edge id="197551640#3" from="2077751060" to="2077751096" priority="10" type="highway.tertiary" numLanes="3" speed="22.22" shape="1522.42,1155.13 1521.16,1161.59 1518.26,1167.52 1513.93,1172.51" spreadType="center" disallow="tram rail_urban rail rail_electric rail_fast ship container cable_car subway aircraft wheelchair scooter drone"/>
    <edge id="197551640#4" from="2077751096" to="2077751105" priority="10" type="highway.tertiary" numLanes="3" speed="22.22" spreadType="center" disallow="tram rail_urban rail rail_electric rail_fast ship container cable_car subway aircraft wheelchair scooter drone"/>
    <edge id="197551642" from="2077750965" to="2077750926" priority="1" type="highway.service" numLanes="1" speed="5.56" spreadType="center" allow="pedestrian delivery bicycle"/>
    <edge id="197551643" from="2077750833" to="2077750885" priority="1" type="highway.service" numLanes="1" speed="5.56" spreadType="center" allow="pedestrian delivery bicycle"/>
    <edge id="197551646" from="2077750914" to="2077750871" priority="1" type="highway.service" numLanes="1" speed="5.56" spreadType="center" allow="pedestrian delivery bicycle"/>
    <edge id="197551648#0" from="2077751136" to="12181719805" priority="10" type="highway.tertiary" numLanes="3" speed="22.22" spreadType="center" disallow="tram rail_urban rail rail_electric rail_fast ship container cable_car subway aircraft wheelchair scooter drone"/>
    <edge id="197551648#1" from="12181719805" to="2077751096" priority="10" type="highway.tertiary" numLanes="3" speed="22.22" spreadType="center" disallow="tram rail_urban rail rail_electric rail_fast ship container cable_car subway aircraft wheelchair scooter drone"/>
    <edge id="197551649" from="2077750907" to="2077750933" priority="1" type="highway.service" numLanes="1" speed="5.56" spreadType="center" allow="pedestrian delivery bicycle"/>
    <edge id="197551654#0" from="2077750777" to="2077750762" priority="1" type="highway.service" numLanes="1" speed="5.56" allow="pedestrian delivery bicycle"/>
    <edge id="197551654#1" from="2077750762" to="2077750739" priority="1" type="highway.service" numLanes="1" speed="5.56" allow="pedestrian delivery bicycle"/>
    <edge id="197551655#0" from="2077751060" to="2077751124" priority="10" type="highway.tertiary" numLanes="3" speed="22.22" spreadType="center" disallow="tram rail_urban rail rail_electric rail_fast ship container cable_car subway aircraft wheelchair scooter drone"/>
    <edge id="197551655#1" from="2077751124" to="2077751129" priority="10" type="highway.tertiary" numLanes="3" speed="22.22" spreadType="center" disallow="tram rail_urban rail rail_electric rail_fast ship container cable_car subway aircraft wheelchair scooter drone"/>
    <edge id="197551656" from="2077750739" to="2077750766" priority="1" type="highway.service" numLanes="1" speed="5.56" shape="1509.97,975.09 1533.28,979.26 1575.43,981.75" spreadType="center" allow="pedestrian delivery bicycle"/>
    <edge id="197551657#0" from="2077750766" to="2077750816" priority="1" type="highway.service" numLanes="1" speed="5.56" spreadType="center" allow="pedestrian delivery bicycle"/>
    <edge id="197551657#1" from="2077750816" to="2077750843" priority="1" type="highway.service" numLanes="1" speed="5.56" shape="1653.59,1011.44 1676.30,1022.18" spreadType="center" allow="pedestrian delivery bicycle"/>
    <edge id="197551658" from="2077750843" to="2077750786" priority="1" type="highway.service" numLanes="1" speed="5.56" shape="1675.25,1025.16 1547.66,1001.13 1520.08,996.33" spreadType="center" allow="pedestrian delivery bicycle"/>
    <edge id="197551659" from="2077751059" to="2077750992" priority="1" type="highway.service" numLanes="1" speed="5.56" shape="1643.13,1153.19 1647.49,1137.55 1531.06,1116.55" allow="pedestrian delivery bicycle"/>
    <edge id="197551661" from="2077750739" to="2077750766" priority="1" type="highway.service" numLanes="1" speed="5.56" shape="1509.97,975.09 1520.96,958.07 1575.43,981.75" spreadType="center" allow="pedestrian delivery bicycle"/>