<?xml version="1.0" encoding="UTF-8"?>

<!-- generated on 2025-04-01 12:27:41 by Eclipse SUMO netconvert Version 1.22.0
<netconvertConfiguration xmlns:xsi="http://www.w3.org/2001/XMLSchema-instance" xsi:noNamespaceSchemaLocation="http://sumo.dlr.de/xsd/netconvertConfiguration.xsd">

    <input>
        <sumo-net-file value="my_sumo_net.net.xml"/>
    </input>

    <output>
        <plain-output-prefix value="extracted/"/>
    </output>

    <processing>
        <geometry.min-radius.fix.railways value="false"/>
        <geometry.max-grade.fix value="false"/>
        <offset.disable-normalization value="true"/>
        <lefthand value="0"/>
    </processing>

    <junctions>
        <no-turnarounds value="true"/>
        <junctions.corner-detail value="5"/>
        <junctions.limit-turn-speed value="5.50"/>
        <rectangular-lane-cut value="0"/>
    </junctions>

    <pedestrian>
        <walkingareas value="0"/>
    </pedestrian>

</netconvertConfiguration>
-->

<connections version="1.20" xmlns:xsi="http://www.w3.org/2001/XMLSchema-instance" xsi:noNamespaceSchemaLocation="http://sumo.dlr.de/xsd/connections_file.xsd">
    <connection from="-1179712572#0" to="47442735#4" fromLane="0" toLane="0"/>
    <connection from="-1179712572#0" to="1179712572#0" fromLane="0" toLane="0"/>

    <connection from="-1179712572#1" to="1179712573" fromLane="0" toLane="0"/>
    <connection from="-1179712572#1" to="-1179712572#0" fromLane="0" toLane="0"/>
    <connection from="-1179712572#1" to="1179712572#1" fromLane="0" toLane="0"/>

    <connection from="-1179712573" to="-1179712572#0" fromLane="0" toLane="0"/>
    <connection from="-1179712573" to="1179712572#1" fromLane="0" toLane="0"/>
    <connection from="-1179712573" to="1179712573" fromLane="0" toLane="0"/>

    <connection from="-170356124" to="170356124" fromLane="0" toLane="0"/>

    <connection from="-197551632#0" to="491337034" fromLane="0" toLane="0"/>
    <connection from="-197551632#0" to="-914376097" fromLane="0" toLane="0"/>
    <connection from="-197551632#0" to="197551632#0" fromLane="0" toLane="0"/>

    <connection from="-197551632#1" to="-197551632#0" fromLane="0" toLane="0"/>
    <connection from="-197551632#1" to="415697113#3" fromLane="0" toLane="0"/>
    <connection from="-197551632#1" to="197551632#1" fromLane="0" toLane="0"/>

    <connection from="-197551632#2" to="47442735#5" fromLane="0" toLane="0"/>
    <connection from="-197551632#2" to="-197551632#1" fromLane="0" toLane="0"/>
    <connection from="-197551632#2" to="197551632#2" fromLane="0" toLane="0"/>

    <connection from="-197551633#0" to="-197551679#2" fromLane="0" toLane="0"/>
    <connection from="-197551633#0" to="197551679#3" fromLane="0" toLane="0"/>
    <connection from="-197551633#0" to="197551633#0" fromLane="0" toLane="0"/>

    <connection from="-197551633#1" to="-197551633#0" fromLane="0" toLane="0"/>
    <connection from="-197551633#1" to="197551633#1" fromLane="0" toLane="0"/>

    <connection from="-197551633#2" to="197551649" fromLane="0" toLane="0"/>
    <connection from="-197551633#2" to="-197551633#1" fromLane="0" toLane="0"/>
    <connection from="-197551633#2" to="197551633#2" fromLane="0" toLane="0"/>

    <connection from="-197551633#3" to="-197551633#2" fromLane="0" toLane="0"/>
    <connection from="-197551633#3" to="197551633#3" fromLane="0" toLane="0"/>

    <connection from="-197551633#4" to="197551643" fromLane="0" toLane="0"/>
    <connection from="-197551633#4" to="-197551633#3" fromLane="0" toLane="0"/>
    <connection from="-197551633#4" to="197551633#4" fromLane="0" toLane="0"/>

    <connection from="-197551633#5" to="-197551633#4" fromLane="0" toLane="0"/>
    <connection from="-197551633#5" to="197551633#5" fromLane="0" toLane="0"/>

    <connection from="-197551654#0" to="-197551662#1" fromLane="0" toLane="0"/>
    <connection from="-197551654#0" to="197551662#2" fromLane="0" toLane="0"/>
    <connection from="-197551654#0" to="197551654#0" fromLane="0" toLane="0"/>

    <connection from="-197551654#1" to="-197551633#5" fromLane="0" toLane="0"/>
    <connection from="-197551654#1" to="-197551654#0" fromLane="0" toLane="0"/>
    <connection from="-197551654#1" to="197551654#1" fromLane="0" toLane="0"/>

    <connection from="-197551659" to="-197551667#1" fromLane="0" toLane="0"/>
    <connection from="-197551659" to="197551667#2" fromLane="0" toLane="0"/>
    <connection from="-197551659" to="197551659" fromLane="0" toLane="0"/>

    <connection from="-197551662#0" to="197551640#2" fromLane="0" toLane="0" visibility="9.00"/>

    <connection from="-197551662#1" to="-197551679#3" fromLane="0" toLane="0"/>
    <connection from="-197551662#1" to="-197551662#0" fromLane="0" toLane="0"/>
    <connection from="-197551662#1" to="197551662#1" fromLane="0" toLane="0"/>

    <connection from="-197551662#2" to="197551654#0" fromLane="0" toLane="0"/>
    <connection from="-197551662#2" to="-197551662#1" fromLane="0" toLane="0"/>
    <connection from="-197551662#2" to="197551662#2" fromLane="0" toLane="0"/>

    <connection from="-197551662#3" to="-197551662#2" fromLane="0" toLane="0"/>
    <connection from="-197551662#3" to="197551662#3" fromLane="0" toLane="0"/>

    <connection from="-197551662#4" to="-197551662#3" fromLane="0" toLane="0"/>
    <connection from="-197551662#4" to="197551662#4" fromLane="0" toLane="0"/>

    <connection from="-197551667#0" to="47442750#2" fromLane="0" toLane="1"/>
    <connection from="-197551667#0" to="47442750#2" fromLane="0" toLane="2"/>
    <connection from="-197551667#0" to="197551667#0" fromLane="0" toLane="0"/>

    <connection from="-197551667#1" to="25439947#5" fromLane="0" toLane="0"/>
    <connection from="-197551667#1" to="-197551667#0" fromLane="0" toLane="0"/>
    <connection from="-197551667#1" to="197551667#1" fromLane="0" toLane="0"/>

    <connection from="-197551667#2" to="197551659" fromLane="0" toLane="0"/>
    <connection from="-197551667#2" to="-197551667#1" fromLane="0" toLane="0"/>
    <connection from="-197551667#2" to="197551667#2" fromLane="0" toLane="0"/>

    <connection from="-197551668#0" to="197551640#1" fromLane="0" toLane="0" visibility="9.00"/>

    <connection from="-197551668#1" to="-197551668#0" fromLane="0" toLane="0"/>
    <connection from="-197551668#1" to="197551635" fromLane="0" toLane="0"/>
    <connection from="-197551668#1" to="197551668#1" fromLane="0" toLane="0"/>

    <connection from="-197551668#2" to="-197551668#1" fromLane="0" toLane="0"/>
    <connection from="-197551668#2" to="197551668#2" fromLane="0" toLane="0"/>

    <connection from="-197551668#3" to="-197551668#2" fromLane="0" toLane="0"/>
    <connection from="-197551668#3" to="540383744#0" fromLane="0" toLane="0"/>
    <connection from="-197551668#3" to="197551668#3" fromLane="0" toLane="0"/>

    <connection from="-197551668#4" to="-197551668#3" fromLane="0" toLane="0"/>
    <connection from="-197551668#4" to="197551668#4" fromLane="0" toLane="0"/>

    <connection from="-197551673#0" to="197551658" fromLane="0" toLane="0"/>

    <connection from="-197551673#1" to="-197551673#0" fromLane="0" toLane="0"/>
    <connection from="-197551673#1" to="197551673#1" fromLane="0" toLane="0"/>

    <connection from="-197551673#2" to="197551646" fromLane="0" toLane="0"/>
    <connection from="-197551673#2" to="-197551673#1" fromLane="0" toLane="0"/>
    <connection from="-197551673#2" to="197551673#2" fromLane="0" toLane="0"/>

    <connection from="-197551673#3" to="-197551673#2" fromLane="0" toLane="0"/>
    <connection from="-197551673#3" to="197551673#3" fromLane="0" toLane="0"/>

    <connection from="-197551673#4" to="197551642" fromLane="0" toLane="0"/>
    <connection from="-197551673#4" to="-197551673#3" fromLane="0" toLane="0"/>
    <connection from="-197551673#4" to="197551673#4" fromLane="0" toLane="0"/>

    <connection from="-197551679#0" to="47442750#1" fromLane="0" toLane="1"/>
    <connection from="-197551679#0" to="47442750#1" fromLane="0" toLane="2"/>
    <connection from="-197551679#0" to="197551679#0" fromLane="0" toLane="0"/>

    <connection from="-197551679#1" to="25439947#6" fromLane="0" toLane="0"/>
    <connection from="-197551679#1" to="-197551679#0" fromLane="0" toLane="0"/>
    <connection from="-197551679#1" to="197551679#1" fromLane="0" toLane="0"/>

    <connection from="-197551679#2" to="-197551673#4" fromLane="0" toLane="0"/>
    <connection from="-197551679#2" to="-197551679#1" fromLane="0" toLane="0"/>
    <connection from="-197551679#2" to="197551679#2" fromLane="0" toLane="0"/>

    <connection from="-197551679#3" to="197551633#0" fromLane="0" toLane="0"/>
    <connection from="-197551679#3" to="-197551679#2" fromLane="0" toLane="0"/>
    <connection from="-197551679#3" to="197551679#3" fromLane="0" toLane="0"/>

    <connection from="-29182100#0" to="1136647934" fromLane="0" toLane="0"/>
    <connection from="-29182100#0" to="1136647934" fromLane="1" toLane="1"/>
    <connection from="-29182100#0" to="29182100#0" fromLane="1" toLane="1"/>

    <connection from="-29182100#1" to="-170356124" fromLane="0" toLane="0"/>
    <connection from="-29182100#1" to="1136647933#0" fromLane="0" toLane="0"/>
    <connection from="-29182100#1" to="-29182100#0" fromLane="0" toLane="0"/>
    <connection from="-29182100#1" to="-29182100#0" fromLane="1" toLane="1"/>
    <connection from="-29182100#1" to="29182100#1" fromLane="1" toLane="1"/>

    <connection from="-415670669#0" to="540430733" fromLane="0" toLane="0"/>
    <connection from="-415670669#0" to="-491337034" fromLane="0" toLane="0"/>

    <connection from="-415670669#1" to="-540430733" fromLane="0" toLane="0"/>
    <connection from="-415670669#1" to="-415670669#0" fromLane="0" toLane="0"/>

    <connection from="-415670711" to="491337032#0" fromLane="0" toLane="1"/>
    <connection from="-415670711" to="415670711" fromLane="0" toLane="0"/>

    <connection from="-415697019#0" to="491337032#2" fromLane="0" toLane="0"/>
    <connection from="-415697019#0" to="415697019#0" fromLane="0" toLane="0"/>

    <connection from="-415697019#1" to="-415697019#0" fromLane="0" toLane="0"/>
    <connection from="-415697019#1" to="415697019#1" fromLane="0" toLane="0"/>

    <connection from="-415697019#2" to="-415697019#1" fromLane="0" toLane="0"/>
    <connection from="-415697019#2" to="415697080" fromLane="0" toLane="0"/>
    <connection from="-415697019#2" to="415697019#2" fromLane="0" toLane="0"/>

    <connection from="-415697064" to="411109889#2" fromLane="0" toLane="0"/>
    <connection from="-415697064" to="415697064" fromLane="0" toLane="0"/>

    <connection from="-415697074#0" to="491337032#1" fromLane="0" toLane="0"/>
    <connection from="-415697074#0" to="415697074#0" fromLane="0" toLane="0"/>

    <connection from="-415697074#1" to="-415697074#0" fromLane="0" toLane="0"/>
    <connection from="-415697074#1" to="415697074#1" fromLane="0" toLane="0"/>

    <connection from="-415697080" to="415697019#2" fromLane="0" toLane="0"/>
    <connection from="-415697080" to="-415697019#1" fromLane="0" toLane="0"/>
    <connection from="-415697080" to="415697080" fromLane="0" toLane="0"/>

    <connection from="-491337034" to="-914376097" fromLane="0" toLane="0"/>
    <connection from="-491337034" to="197551632#0" fromLane="0" toLane="0"/>
    <connection from="-491337034" to="491337034" fromLane="0" toLane="0"/>

    <connection from="-491342453" to="-498859819" fromLane="0" toLane="0"/>
    <connection from="-491342453" to="415670710#0" fromLane="0" toLane="0"/>
    <connection from="-491342453" to="491342453" fromLane="0" toLane="0"/>

    <connection from="-491342456" to="-415670711" fromLane="0" toLane="0"/>
    <connection from="-491342456" to="914376099" fromLane="0" toLane="0"/>
    <connection from="-491342456" to="491342456" fromLane="0" toLane="0"/>

    <connection from="-498859819" to="-415670669#1" fromLane="0" toLane="0"/>

    <connection from="-540379956#0" to="47442735#1" fromLane="0" toLane="0"/>
    <connection from="-540379956#0" to="540379956#0" fromLane="0" toLane="0"/>

    <connection from="-540379956#1" to="-540379956#0" fromLane="0" toLane="0"/>

    <connection from="-540379959#0" to="415670710#1" fromLane="0" toLane="0"/>
    <connection from="-540379959#0" to="540379959#0" fromLane="0" toLane="0"/>

    <connection from="-540379959#1" to="490917268#3" fromLane="0" toLane="0"/>
    <connection from="-540379959#1" to="-540379959#0" fromLane="0" toLane="0"/>
    <connection from="-540379959#1" to="540379959#1" fromLane="0" toLane="0"/>

    <connection from="-540383741#0" to="47442735#2" fromLane="0" toLane="0"/>
    <connection from="-540383741#0" to="540383741#0" fromLane="0" toLane="0"/>

    <connection from="-540383741#1" to="-540383741#0" fromLane="0" toLane="0"/>
    <connection from="-540383741#1" to="540383742" fromLane="0" toLane="0"/>
    <connection from="-540383741#1" to="540383741#1" fromLane="0" toLane="0"/>

    <connection from="-540383741#2" to="-540383741#1" fromLane="0" toLane="0"/>
    <connection from="-540383741#2" to="540383741#2" fromLane="0" toLane="0"/>

    <connection from="-540383742" to="540383741#1" fromLane="0" toLane="0"/>
    <connection from="-540383742" to="-540383741#0" fromLane="0" toLane="0"/>
    <connection from="-540383742" to="540383742" fromLane="0" toLane="0"/>

    <connection from="-540383744#0" to="197551668#3" fromLane="0" toLane="0"/>
    <connection from="-540383744#0" to="-197551668#2" fromLane="0" toLane="0"/>
    <connection from="-540383744#0" to="540383744#0" fromLane="0" toLane="0"/>

    <connection from="-540383744#1" to="-540383744#0" fromLane="0" toLane="0"/>
    <connection from="-540383744#1" to="540383744#1" fromLane="0" toLane="0"/>

    <connection from="-540430733" to="-491337034" fromLane="0" toLane="0"/>
    <connection from="-540430733" to="415670669#0" fromLane="0" toLane="0"/>
    <connection from="-540430733" to="540430733" fromLane="0" toLane="0"/>

    <connection from="-540430734#0" to="490917268#2" fromLane="0" toLane="0"/>
    <connection from="-540430734#0" to="540430734#0" fromLane="0" toLane="0"/>

    <connection from="-552581045" to="552581045" fromLane="0" toLane="0"/>

    <connection from="-914376097" to="491342454" fromLane="0" toLane="0"/>
    <connection from="-914376097" to="-914376098" fromLane="0" toLane="0"/>
    <connection from="-914376097" to="914376097" fromLane="0" toLane="0"/>

    <connection from="-914376098" to="415670731#1" fromLane="0" toLane="1"/>
    <connection from="-914376098" to="914376098" fromLane="0" toLane="0"/>

    <connection from="1136647933#0" to="-415697064" fromLane="0" toLane="0"/>

    <connection from="1136647934" to="1136647935#0" fromLane="0" toLane="0"/>
    <connection from="1136647934" to="1136647935#0" fromLane="1" toLane="1"/>
    <connection from="1136647934" to="1136647935#0" fromLane="1" toLane="2"/>

    <connection from="1136647935#0" to="1136647935#1" fromLane="0" toLane="0"/>
    <connection from="1136647935#0" to="1136647935#1" fromLane="1" toLane="1"/>
    <connection from="1136647935#0" to="1136647935#1" fromLane="2" toLane="2"/>

    <connection from="1136647935#1" to="25439947#1" fromLane="0" toLane="0"/>
    <connection from="1136647935#1" to="1136647935#2" fromLane="0" toLane="0"/>
    <connection from="1136647935#1" to="1136647935#2" fromLane="1" toLane="1"/>
    <connection from="1136647935#1" to="1136647935#2" fromLane="2" toLane="2"/>

    <connection from="1136647935#2" to="491337020#0" fromLane="0" toLane="0"/>
    <connection from="1136647935#2" to="491337020#0" fromLane="1" toLane="1"/>
    <connection from="1136647935#2" to="47442733" fromLane="2" toLane="0"/>

    <connection from="1179712572#0" to="1179712572#1" fromLane="0" toLane="0"/>
    <connection from="1179712572#0" to="1179712573" fromLane="0" toLane="0"/>
    <connection from="1179712572#0" to="-1179712572#0" fromLane="0" toLane="0"/>

    <connection from="1179712572#1" to="-1179712572#1" fromLane="0" toLane="0"/>

    <connection from="1179712573" to="-1179712573" fromLane="0" toLane="0"/>

    <connection from="170356124" to="1136647933#0" fromLane="0" toLane="0"/>
    <connection from="170356124" to="-29182100#0" fromLane="0" toLane="0"/>
    <connection from="170356124" to="29182100#1" fromLane="0" toLane="1"/>
    <connection from="170356124" to="-170356124" fromLane="0" toLane="0"/>

    <connection from="197551632#0" to="415697113#3" fromLane="0" toLane="0"/>
    <connection from="197551632#0" to="197551632#1" fromLane="0" toLane="0"/>
    <connection from="197551632#0" to="-197551632#0" fromLane="0" toLane="0"/>

    <connection from="197551632#1" to="197551632#2" fromLane="0" toLane="0"/>
    <connection from="197551632#1" to="47442735#5" fromLane="0" toLane="0"/>
    <connection from="197551632#1" to="-197551632#1" fromLane="0" toLane="0"/>

    <connection from="197551632#2" to="-197551632#2" fromLane="0" toLane="0"/>

    <connection from="197551633#0" to="197551633#1" fromLane="0" toLane="0"/>
    <connection from="197551633#0" to="-197551633#0" fromLane="0" toLane="0"/>

    <connection from="197551633#1" to="197551633#2" fromLane="0" toLane="0"/>
    <connection from="197551633#1" to="197551649" fromLane="0" toLane="0"/>
    <connection from="197551633#1" to="-197551633#1" fromLane="0" toLane="0"/>

    <connection from="197551633#2" to="197551633#3" fromLane="0" toLane="0"/>
    <connection from="197551633#2" to="-197551633#2" fromLane="0" toLane="0"/>

    <connection from="197551633#3" to="197551633#4" fromLane="0" toLane="0"/>
    <connection from="197551633#3" to="197551643" fromLane="0" toLane="0"/>
    <connection from="197551633#3" to="-197551633#3" fromLane="0" toLane="0"/>

    <connection from="197551633#4" to="197551633#5" fromLane="0" toLane="0"/>
    <connection from="197551633#4" to="-197551633#4" fromLane="0" toLane="0"/>

    <connection from="197551633#5" to="-197551654#0" fromLane="0" toLane="0"/>
    <connection from="197551633#5" to="197551654#1" fromLane="0" toLane="0"/>
    <connection from="197551633#5" to="-197551633#5" fromLane="0" toLane="0"/>

    <connection from="197551635" to="197551668#2" fromLane="0" toLane="0"/>
    <connection from="197551635" to="-197551668#1" fromLane="0" toLane="0"/>

    <connection from="197551640#0" to="197551668#0" fromLane="0" toLane="0"/>
    <connection from="197551640#0" to="197551640#1" fromLane="0" toLane="0"/>
    <connection from="197551640#0" to="197551640#1" fromLane="1" toLane="1"/>
    <connection from="197551640#0" to="197551640#1" fromLane="2" toLane="2"/>

    <connection from="197551640#1" to="197551662#0" fromLane="0" toLane="0"/>
    <connection from="197551640#1" to="197551640#2" fromLane="0" toLane="0"/>
    <connection from="197551640#1" to="197551640#2" fromLane="1" toLane="1"/>
    <connection from="197551640#1" to="197551640#2" fromLane="2" toLane="2"/>

    <connection from="197551640#2" to="197551655#0" fromLane="0" toLane="0"/>
    <connection from="197551640#2" to="197551655#0" fromLane="0" toLane="1"/>
    <connection from="197551640#2" to="197551655#0" fromLane="0" toLane="2"/>
    <connection from="197551640#2" to="197551640#3" fromLane="0" toLane="0"/>
    <connection from="197551640#2" to="197551640#3" fromLane="1" toLane="1"/>
    <connection from="197551640#2" to="197551640#3" fromLane="2" toLane="2"/>

    <connection from="197551640#3" to="197551640#4" fromLane="0" toLane="0"/>
    <connection from="197551640#3" to="197551640#4" fromLane="1" toLane="1"/>
    <connection from="197551640#3" to="197551640#4" fromLane="2" toLane="2"/>

    <connection from="197551640#4" to="197551640#0" fromLane="0" toLane="0"/>
    <connection from="197551640#4" to="197551640#0" fromLane="1" toLane="1"/>
    <connection from="197551640#4" to="197551640#0" fromLane="2" toLane="2"/>

    <connection from="197551642" to="-197551633#0" fromLane="0" toLane="0"/>
    <connection from="197551642" to="197551633#1" fromLane="0" toLane="0"/>

    <connection from="197551643" to="-197551673#0" fromLane="0" toLane="0"/>
    <connection from="197551643" to="197551673#1" fromLane="0" toLane="0"/>

    <connection from="197551646" to="-197551633#2" fromLane="0" toLane="0"/>
    <connection from="197551646" to="197551633#3" fromLane="0" toLane="0"/>

    <connection from="197551648#0" to="197551648#1" fromLane="0" toLane="0"/>
    <connection from="197551648#0" to="197551648#1" fromLane="1" toLane="1"/>
    <connection from="197551648#0" to="197551648#1" fromLane="2" toLane="2"/>

    <connection from="197551648#1" to="197551640#4" fromLane="0" toLane="0" visibility="9.00"/>
    <connection from="197551648#1" to="197551640#4" fromLane="1" toLane="1" visibility="9.00"/>
    <connection from="197551648#1" to="197551640#4" fromLane="2" toLane="2" visibility="9.00"/>

    <connection from="197551649" to="-197551673#2" fromLane="0" toLane="0"/>
    <connection from="197551649" to="197551673#3" fromLane="0" toLane="0"/>

    <connection from="197551654#0" to="197551654#1" fromLane="0" toLane="0"/>
    <connection from="197551654#0" to="-197551633#5" fromLane="0" toLane="0"/>
    <connection from="197551654#0" to="-197551654#0" fromLane="0" toLane="0"/>

    <connection from="197551654#1" to="197551661" fromLane="0" toLane="0"/>
    <connection from="197551654#1" to="197551656" fromLane="0" toLane="0"/>
    <connection from="197551654#1" to="-197551654#1" fromLane="0" toLane="0"/>

    <connection from="197551655#0" to="25439947#4" fromLane="0" toLane="0"/>
    <connection from="197551655#0" to="197551655#1" fromLane="0" toLane="0"/>
    <connection from="197551655#0" to="197551655#1" fromLane="1" toLane="1"/>
    <connection from="197551655#0" to="197551655#1" fromLane="2" toLane="2"/>

    <connection from="197551655#1" to="47442750#3" fromLane="0" toLane="0"/>
    <connection from="197551655#1" to="47442750#3" fromLane="1" toLane="1"/>
    <connection from="197551655#1" to="47442750#3" fromLane="2" toLane="2"/>

    <connection from="197551656" to="197551657#0" fromLane="0" toLane="0"/>

    <connection from="197551657#0" to="197551657#1" fromLane="0" toLane="0"/>

    <connection from="197551657#1" to="197551673#0" fromLane="0" toLane="0"/>

    <connection from="197551658" to="-197551633#4" fromLane="0" toLane="0"/>
    <connection from="197551658" to="197551633#5" fromLane="0" toLane="0"/>

    <connection from="197551659" to="-197551659" fromLane="0" toLane="0"/>

    <connection from="197551661" to="197551657#0" fromLane="0" toLane="0"/>

    <connection from="197551662#0" to="197551662#1" fromLane="0" toLane="0"/>
    <connection from="197551662#0" to="-197551679#3" fromLane="0" toLane="0"/>
    <connection from="197551662#0" to="-197551662#0" fromLane="0" toLane="0"/>

    <connection from="197551662#1" to="197551662#2" fromLane="0" toLane="0"/>
    <connection from="197551662#1" to="197551654#0" fromLane="0" toLane="0"/>
    <connection from="197551662#1" to="-197551662#1" fromLane="0" toLane="0"/>

    <connection from="197551662#2" to="197551662#3" fromLane="0" toLane="0"/>
    <connection from="197551662#2" to="-197551662#2" fromLane="0" toLane="0"/>

    <connection from="197551662#3" to="197551662#4" fromLane="0" toLane="0"/>
    <connection from="197551662#3" to="-197551662#3" fromLane="0" toLane="0"/>

    <connection from="197551662#4" to="-197551662#4" fromLane="0" toLane="0"/>

    <connection from="197551667#0" to="197551667#1" fromLane="0" toLane="0"/>
    <connection from="197551667#0" to="25439947#5" fromLane="0" toLane="2"/>
    <connection from="197551667#0" to="-197551667#0" fromLane="0" toLane="0"/>

    <connection from="197551667#1" to="197551667#2" fromLane="0" toLane="0"/>
    <connection from="197551667#1" to="197551659" fromLane="0" toLane="0"/>
    <connection from="197551667#1" to="-197551667#1" fromLane="0" toLane="0"/>

    <connection from="197551667#2" to="-197551667#2" fromLane="0" toLane="0"/>

    <connection from="197551668#0" to="197551635" fromLane="0" toLane="0"/>
    <connection from="197551668#0" to="197551668#1" fromLane="0" toLane="0"/>
    <connection from="197551668#0" to="-197551668#0" fromLane="0" toLane="0"/>

    <connection from="197551668#1" to="197551668#2" fromLane="0" toLane="0"/>
    <connection from="197551668#1" to="-197551668#1" fromLane="0" toLane="0"/>

    <connection from="197551668#2" to="540383744#0" fromLane="0" toLane="0"/>
    <connection from="197551668#2" to="197551668#3" fromLane="0" toLane="0"/>
    <connection from="197551668#2" to="-197551668#2" fromLane="0" toLane="0"/>

    <connection from="197551668#3" to="197551668#4" fromLane="0" toLane="0"/>
    <connection from="197551668#3" to="-197551668#3" fromLane="0" toLane="0"/>

    <connection from="197551668#4" to="484586801#3" fromLane="0" toLane="0" visibility="9.00"/>

    <connection from="197551673#0" to="197551673#1" fromLane="0" toLane="0"/>
    <connection from="197551673#0" to="-197551673#0" fromLane="0" toLane="0"/>

    <connection from="197551673#1" to="197551673#2" fromLane="0" toLane="0"/>
    <connection from="197551673#1" to="197551646" fromLane="0" toLane="0"/>
    <connection from="197551673#1" to="-197551673#1" fromLane="0" toLane="0"/>

    <connection from="197551673#2" to="197551673#3" fromLane="0" toLane="0"/>
    <connection from="197551673#2" to="-197551673#2" fromLane="0" toLane="0"/>

    <connection from="197551673#3" to="197551673#4" fromLane="0" toLane="0"/>
    <connection from="197551673#3" to="197551642" fromLane="0" toLane="0"/>
    <connection from="197551673#3" to="-197551673#3" fromLane="0" toLane="0"/>

    <connection from="197551673#4" to="-197551679#1" fromLane="0" toLane="0"/>
    <connection from="197551673#4" to="197551679#2" fromLane="0" toLane="0"/>
    <connection from="197551673#4" to="-197551673#4" fromLane="0" toLane="0"/>

    <connection from="197551679#0" to="197551679#1" fromLane="0" toLane="0"/>
    <connection from="197551679#0" to="25439947#6" fromLane="0" toLane="2"/>
    <connection from="197551679#0" to="-197551679#0" fromLane="0" toLane="0"/>

    <connection from="197551679#1" to="197551679#2" fromLane="0" toLane="0"/>
    <connection from="197551679#1" to="-197551673#4" fromLane="0" toLane="0"/>
    <connection from="197551679#1" to="-197551679#1" fromLane="0" toLane="0"/>

    <connection from="197551679#2" to="197551679#3" fromLane="0" toLane="0"/>
    <connection from="197551679#2" to="197551633#0" fromLane="0" toLane="0"/>
    <connection from="197551679#2" to="-197551679#2" fromLane="0" toLane="0"/>

    <connection from="197551679#3" to="-197551662#0" fromLane="0" toLane="0"/>
    <connection from="197551679#3" to="197551662#1" fromLane="0" toLane="0"/>
    <connection from="197551679#3" to="-197551679#3" fromLane="0" toLane="0"/>

    <connection from="25439947#0" to="25439947#1" fromLane="0" toLane="0"/>
    <connection from="25439947#0" to="25439947#1" fromLane="1" toLane="1"/>
    <connection from="25439947#0" to="25439947#1" fromLane="2" toLane="2"/>
    <connection from="25439947#0" to="1136647935#2" fromLane="2" toLane="1"/>
    <connection from="25439947#0" to="1136647935#2" fromLane="2" toLane="2"/>

    <connection from="25439947#1" to="197551648#0" fromLane="0" toLane="0"/>
    <connection from="25439947#1" to="197551648#0" fromLane="0" toLane="1"/>
    <connection from="25439947#1" to="197551648#0" fromLane="0" toLane="2"/>
    <connection from="25439947#1" to="25439947#2" fromLane="0" toLane="0"/>
    <connection from="25439947#1" to="25439947#2" fromLane="1" toLane="1"/>
    <connection from="25439947#1" to="25439947#2" fromLane="2" toLane="2"/>

    <connection from="25439947#2" to="25439947#3" fromLane="0" toLane="0"/>
    <connection from="25439947#2" to="25439947#3" fromLane="1" toLane="1"/>
    <connection from="25439947#2" to="25439947#3" fromLane="2" toLane="2"/>

    <connection from="25439947#3" to="25439947#4" fromLane="0" toLane="0"/>
    <connection from="25439947#3" to="25439947#4" fromLane="1" toLane="1"/>
    <connection from="25439947#3" to="25439947#4" fromLane="2" toLane="2"/>
    <connection from="25439947#3" to="197551655#1" fromLane="2" toLane="1"/>
    <connection from="25439947#3" to="197551655#1" fromLane="2" toLane="2"/>

    <connection from="25439947#4" to="197551667#1" fromLane="0" toLane="0"/>
    <connection from="25439947#4" to="25439947#5" fromLane="0" toLane="0"/>
    <connection from="25439947#4" to="25439947#5" fromLane="1" toLane="1"/>
    <connection from="25439947#4" to="25439947#5" fromLane="2" toLane="2"/>
    <connection from="25439947#4" to="-197551667#0" fromLane="2" toLane="0"/>

    <connection from="25439947#5" to="197551679#1" fromLane="0" toLane="0"/>
    <connection from="25439947#5" to="25439947#6" fromLane="0" toLane="0"/>
    <connection from="25439947#5" to="25439947#6" fromLane="1" toLane="1"/>
    <connection from="25439947#5" to="25439947#6" fromLane="2" toLane="2"/>
    <connection from="25439947#5" to="-197551679#0" fromLane="2" toLane="0"/>

    <connection from="25439947#6" to="47442743#0" fromLane="0" toLane="0"/>
    <connection from="25439947#6" to="491337029#0" fromLane="1" toLane="0"/>

    <connection from="27592696" to="29182100#1" fromLane="0" toLane="0"/>
    <connection from="27592696" to="-170356124" fromLane="0" toLane="0"/>
    <connection from="27592696" to="1136647933#0" fromLane="0" toLane="0"/>
    <connection from="27592696" to="-29182100#0" fromLane="1" toLane="1"/>

    <connection from="29182100#0" to="29182100#1" fromLane="0" toLane="0"/>
    <connection from="29182100#0" to="29182100#1" fromLane="1" toLane="1"/>
    <connection from="29182100#0" to="-170356124" fromLane="1" toLane="0"/>
    <connection from="29182100#0" to="1136647933#0" fromLane="1" toLane="0"/>
    <connection from="29182100#0" to="-29182100#0" fromLane="1" toLane="1"/>

    <connection from="29182100#1" to="-29182100#1" fromLane="1" toLane="1"/>
