<?xml version="1.0" encoding="UTF-8"?>

<!-- generated on 2025-04-01 14:44:57.773727 by randomTrips.py UNKNOWN
<configuration>
    <net-file value="my_sumo_net.net.xml"/>
    <output-trip-file value="mymap.trips.xml"/>
    <validate value="True"/>
    <end value="90.0"/>
    <period value="9.0"/>
</configuration>
-->

<!-- generated on 2025-04-01 14:44:57 by Eclipse SUMO duarouter Version 1.22.0
<duarouterConfiguration xmlns:xsi="http://www.w3.org/2001/XMLSchema-instance" xsi:noNamespaceSchemaLocation="http://sumo.dlr.de/xsd/duarouterConfiguration.xsd">

    <input>
        <net-file value="my_sumo_net.net.xml"/>
        <route-files value="mymap.trips.xml"/>
    </input>

    <output>
        <output-file value="routes.rou.xml"/>
        <alternatives-output value="NUL"/>
    </output>

    <time>
        <begin value="0.0"/>
        <end value="90.0"/>
    </time>

    <report>
        <no-warnings value="true"/>
        <ignore-errors value="true"/>
        <no-step-log value="true"/>
    </report>

</duarouterConfiguration>
-->

<!-- <routes xmlns:xsi="http://www.w3.org/2001/XMLSchema-instance" xsi:noNamespaceSchemaLocation="http://sumo.dlr.de/xsd/routes_file.xsd">
    <vehicle id="0" depart="0.00" color="1,0,0">
        <route edges="47442743#2 47442743#3 484586801#2 484586801#3 484586801#4 47442735#0 47442735#1 47442735#2 47442735#3 47442735#4 -197551632#1"/>
    </vehicle>
    <vehicle id="1" depart="9.00" color="0,1,0">
        <route edges="25439947#0 25439947#1 197551648#0 197551648#1"/>
    </vehicle>
    <vehicle id="2" depart="18.00" color="0,0,1">
        <route edges="490917268#1 490917268#2 490917268#3 491337033 415670731#0 415670731#1 415670731#2 491337031 491337032#0 491337032#1 491337032#2 491337030 47442750#0 47442750#1 47442750#2"/>
    </vehicle>
    <vehicle id="3" depart="27.00" color="1,1,0">
        <route edges="491337032#2 491337030 491337021 491337029#0 491337029#1 491337023 491342455 914376099 491342454 491342453 -491342453"/>
    </vehicle>
    <vehicle id="4" depart="36.00">
        <route edges="415670710#3 415670710#4 415697113#0 490917268#1 490917268#2 490917268#3 491337033 415670731#0 415670731#1 415670731#2 491337031 491337032#0 491337032#1 491337032#2 491337030 47442750#0 47442750#1 47442750#2 47442750#3 47442750#4 47442733 27592696 -29182100#0"/>
    </vehicle>
    <vehicle id="5" depart="45.00">
        <route edges="197551632#0 197551632#1 47442735#5 415670710#4 415697113#0"/>
    </vehicle>
    <vehicle id="6" depart="54.00">
        <route edges="-197551632#2 -197551632#1 197551632#1"/>
    </vehicle>
    <vehicle id="7" depart="63.00">
        <route edges="47442743#3 484586801#2 484586801#3 484586801#4 484586801#5 484586801#6 484586801#0 415697112#0 415697112#1 491337029#1 491337022 47442750#0 47442750#1 47442750#2 47442750#3 47442750#4 47442733"/>
    </vehicle>
    <vehicle id="8" depart="72.00">
        <route edges="197551632#0 415697113#3 484586801#6 484586801#0 484586801#1 484586801#2 484586801#3 484586801#4 47442735#0 47442735#1 47442735#2 47442735#3 47442735#4"/>
    </vehicle>
    <vehicle id="9" depart="81.00">
        <route edges="491337027#0 491337027#1 491337032#0 491337032#1 491337032#2 491337030 47442750#0 47442750#1 47442750#2 47442750#3 47442750#4 47442733 27592696 -170356124"/>
    </vehicle>
</routes>
 -->

<routes xmlns:xsi="http://www.w3.org/2001/XMLSchema-instance"
        xsi:noNamespaceSchemaLocation="http://sumo.dlr.de/xsd/routes_file.xsd">

    <vehicle id="0" depart="0.00" color="1,0,0"> <!-- Red -->
        <route edges="47442743#2 47442743#3 484586801#2 484586801#3 484586801#4 47442735#0 47442735#1 47442735#2 47442735#3 47442735#4 -197551632#1"/>
    </vehicle>

    <vehicle id="1" depart="9.00" color="0,1,0"> <!-- Green -->
        <!-- <route edges="25439947#0 25439947#1 197551648#0 197551648#1"/> -->
        <route edges="25439947#0 25439947#1 197551648#0 197551648#1 197551640#4 197551640#0 197551640#1 197551640#2 197551655#0 197551655#1 47442750#3 47442750#4 491337020#0 491337020#1 491337020#2"/>
    </vehicle>

    <vehicle id="2" depart="18.00" color="0,0,1"> <!-- Blue -->
        <route edges="490917268#1 490917268#2 490917268#3 491337033 415670731#0 415670731#1 415670731#2 491337031 491337032#0 491337032#1 491337032#2 491337030 47442750#0 47442750#1 47442750#2"/>
    </vehicle>

    <vehicle id="3" depart="27.00" color="1,1,0"> <!-- Yellow -->
        <route edges="491337032#2 491337030 491337021 491337029#0 491337029#1 491337023 491342455 914376099 491342454 491342453 -491342453"/>
    </vehicle>

    <vehicle id="4" depart="36.00" color="1,0,1"> <!-- Magenta -->
        <route edges="415670710#3 415670710#4 415697113#0 490917268#1 490917268#2 490917268#3 491337033 415670731#0 415670731#1 415670731#2 491337031 491337032#0 491337032#1 491337032#2 491337030 47442750#0 47442750#1 47442750#2 47442750#3 47442750#4 47442733 27592696 -29182100#0"/>
    </vehicle>

    <vehicle id="5" depart="45.00" color="0,1,1"> <!-- Cyan -->
        <route edges="197551632#0 197551632#1 47442735#5 415670710#4 415697113#0"/>
    </vehicle>

    <vehicle id="6" depart="54.00" color="0.5,0.5,0"> <!-- Olive -->
        <route edges="-197551632#2 -197551632#1 197551632#1"/>
    </vehicle>

    <vehicle id="7" depart="63.00" color="1,0.5,0"> <!-- Orange -->
        <route edges="47442743#3 484586801#2 484586801#3 484586801#4 484586801#5 484586801#6 484586801#0 415697112#0 415697112#1 491337029#1 491337022 47442750#0 47442750#1 47442750#2 47442750#3 47442750#4 47442733"/>
    </vehicle>

    <vehicle id="8" depart="72.00" color="0.5,0,1"> <!-- Purple -->
        <route edges="197551632#0 415697113#3 484586801#6 484586801#0 484586801#1 484586801#2 484586801#3 484586801#4 47442735#0 47442735#1 47442735#2 47442735#3 47442735#4"/>
    </vehicle>

    <vehicle id="9" depart="81.00" color="0.3,0.7,0.9"> <!-- Light Blue -->
        <route edges="491337027#0 491337027#1 491337032#0 491337032#1 491337032#2 491337030 47442750#0 47442750#1 47442750#2 47442750#3 47442750#4 47442733 27592696 -170356124"/>
    </vehicle>

</routes>


